[General]
network =BCube
#network = Scenario_Small

#-6.4MB-48W2WRandomSend
debug-statistics-recording = false
output-scalar-file = ${resultdir}/${inifile}/${configname}-${runnumber}.sca
debug-on-errors = false

#ARP should be allocated by controller, otherwise the arp broadcast would ruin the simulation.
output-vector-file = ${resultdir}/${inifile}/${configname}-${runnumber}.vec
sim-time-limit = 110s
simtime-scale = -12

#ARP should be allocated by controller, otherwise the arp broadcast would ruin the simulation.
**.controller.ctrlApp.isArpOracle = true
#**controller.behavior = "ForwardingEXR"
**.controller.ofa_controller.port=6633
#**.*ovs*.open_Flow_Processing.active2sleepTime = 0.0002s
**.*ovs*.open_Flow_Processing.active2sleepTime = 2s
**.*ovs*.open_Flow_Processing.active2sleepTimePort=0.001s 
**.*ovs*.open_Flow_Processing.portpower=1w
**.hostovs*.open_Flow_Processing.switchpower=1w
**.*ovs*.open_Flow_Processing.switchpower=36w
**.*ovs*.open_Flow_Processing.linkCapacity = 1000 #Mbps
**.hostovs*.open_Flow_Processing.portNum = 3
**.*ovs*.open_Flow_Processing.portNum = 4
#8-port switch: 2(in/out)*8*1G/(1500*8)=10^7/7.5 packets/s.
**.*ovs*.serviceTime=0.00000075s #change from 0.0000015
**.*ovs*.sendCompletePacket = true
**.ofa_switch.connectPort = 6633
**.ofa_switch.connectAddress = "controller"
**.buffer.capacity = 1000000 # change from 10
**.ofa_switch.flow_timeout = 200s
**.*ovs*.etherMAC[*].promiscuous = true
#**.controller.ofa_controller.address = 

# NIC configuration
**.ppp[*].queueType = "DropTailQueue" # in routers
**.ppp[*].queue.frameCapacity = 1000  # in routers

#*.configurator.networkAddress = "10.0.0.0"
*.configurator.networkAddress = "192.168.1.0"

**.mss = 536
**.advertisedWindow=21440 #default is 14*mss
**.recordStats=true

#tcp
**.H*.numTcpApps = 2
**.H*.tcpApp[0].typename = "TCPAppOFbased"
**.H*.tcpApp[0].active = true
**.H*.tcpApp[0].localPort=1001 #-1
**.H*.tcpApp[0].connectPort=1000
**.H*.tcpApp[0].tOpen=0s
#**.H*.tcpApp[0].tSend=1s/poisson(16)
**.H*.tcpApp[0].tSend=0.001s/poisson(16)


**.H*.tcpApp[0].sendBytes=10MiB #exponential(6400000B) # the file size.
**.H*.tcpApp[0].tDeadline = 0.3s#800Mbps
**.H*.tcpApp[1].receiveBytes=10MiB #should equal to the send bytes.
**.H*.tcpApp[1].echoDelay=0s
#**.H*.tcpApp[0].sendBytes=6400000B
**.H*.tcpApp[0].tClose=200s

**.H*.tcpApp[1].typename ="TCPSinkOFbased"
**.H*.tcpApp[1].localPort=1000


**.tcpApp[*]**.vector-recording = true
**.open_Flow_Processing**.vector-recording=true
**.vector-recording=false

**.*ovs*.open_Flow_Processing.powerSampleTime=0.03s
#BCube.H*.tcp.rng-% = 
**.H*.tcpApp[1].sampleTime=0.03s
BCube.H1.tcpApp[0].connectAddress=choose(int(intuniform(0,14)),"H2 H3 H4 H5 H6 H7 H8 H9 H10 H11 H12 H13 H14 H15 H16 ")
BCube.H2.tcpApp[0].connectAddress=choose(int(intuniform(0,14)),"H1 H3 H4 H5 H6 H7 H8 H9 H10 H11 H12 H13 H14 H15 H16 ")
BCube.H3.tcpApp[0].connectAddress=choose(int(intuniform(0,14)),"H1 H2 H4 H5 H6 H7 H8 H9 H10 H11 H12 H13 H14 H15 H16 ")
BCube.H4.tcpApp[0].connectAddress=choose(int(intuniform(0,14)),"H1 H2 H3 H5 H6 H7 H8 H9 H10 H11 H12 H13 H14 H15 H16 ")
BCube.H5.tcpApp[0].connectAddress=choose(int(intuniform(0,14)),"H1 H2 H3 H4 H6 H7 H8 H9 H10 H11 H12 H13 H14 H15 H16 ")
BCube.H6.tcpApp[0].connectAddress=choose(int(intuniform(0,14)),"H1 H2 H3 H4 H5 H7 H8 H9 H10 H11 H12 H13 H14 H15 H16 ")
BCube.H7.tcpApp[0].connectAddress=choose(int(intuniform(0,14)),"H1 H2 H3 H4 H5 H6 H8 H9 H10 H11 H12 H13 H14 H15 H16 ")
BCube.H8.tcpApp[0].connectAddress=choose(int(intuniform(0,14)),"H1 H2 H3 H4 H5 H6 H7 H9 H10 H11 H12 H13 H14 H15 H16 ")
BCube.H9.tcpApp[0].connectAddress=choose(int(intuniform(0,14)),"H1 H2 H3 H4 H5 H6 H7 H8 H10 H11 H12 H13 H14 H15 H16 ")
BCube.H10.tcpApp[0].connectAddress=choose(int(intuniform(0,14)),"H1 H2 H3 H4 H5 H6 H7 H8 H9 H11 H12 H13 H14 H15 H16 ")
BCube.H11.tcpApp[0].connectAddress=choose(int(intuniform(0,14)),"H1 H2 H3 H4 H5 H6 H7 H8 H9 H10 H12 H13 H14 H15 H16 ")
BCube.H12.tcpApp[0].connectAddress=choose(int(intuniform(0,14)),"H1 H2 H3 H4 H5 H6 H7 H8 H9 H10 H11 H13 H14 H15 H16 ")
BCube.H13.tcpApp[0].connectAddress=choose(int(intuniform(0,14)),"H1 H2 H3 H4 H5 H6 H7 H8 H9 H10 H11 H12 H14 H15 H16 ")
BCube.H14.tcpApp[0].connectAddress=choose(int(intuniform(0,14)),"H1 H2 H3 H4 H5 H6 H7 H8 H9 H10 H11 H12 H13 H15 H16 ")
BCube.H15.tcpApp[0].connectAddress=choose(int(intuniform(0,14)),"H1 H2 H3 H4 H5 H6 H7 H8 H9 H10 H11 H12 H13 H14 H16 ")
BCube.H16.tcpApp[0].connectAddress=choose(int(intuniform(0,14)),"H1 H2 H3 H4 H5 H6 H7 H8 H9 H10 H11 H12 H13 H14 H15 ")

[Config BEERs-noweight-uf]
description = "BEERs uniform flows"
#**.open_Flow_Processing.**.vector-recording = true
**controller.behavior = "BEERs"
**controller.ctrlApp.isWeightedNode=false
**controller.ctrlApp.max_multi_path_num = 2
**.H*.tcpApp[0].flowScheduleType=1
**controller.ctrlApp.linkcapacity=1000


[Config EXR-noweight-uf]
description = "EX Routing uniform flows"
#**.open_Flow_Processing.**.vector-recording = true
**controller.behavior = "ForwardingEXR"
**controller.ctrlApp.isWeightedNode=false
**.H*.tcpApp[0].flowScheduleType=1
[Config EXR-weight-uf]
description = "Forwarding with EX Routing"
**controller.behavior = "ForwardingEXR"
**controller.ctrlApp.isWeightedNode=true
**.H*.tcpApp[0].flowScheduleType=1  

[Config SP-uf]
description = "Forwarding with SP Routing"
**controller.behavior = "Forwarding"
**.H*.tcpApp[0].flowScheduleType=2
