[General]
network =BCube
#network = Scenario_Small

#-6.4MB-48W2WRandomSend
debug-statistics-recording = false
output-scalar-file = ${resultdir}/${inifile}/${configname}-${runnumber}.sca
debug-on-errors = false

#ARP should be allocated by controller, otherwise the arp broadcast would ruin the simulation.
output-vector-file = ${resultdir}/${inifile}/${configname}-${runnumber}.vec
sim-time-limit = 110s
simtime-scale = -12

#ARP should be allocated by controller, otherwise the arp broadcast would ruin the simulation.
sim-time-limit = 110s
simtime-scale = -12
**controller.ctrlApp.isArpOracle = true
#**controller.behavior = "ForwardingEXR"
**.controller.ofa_controller.port=6633
#**ovs*.open_Flow_Processing.active2sleepTime = 0.0002s
**ovs*.open_Flow_Processing.active2sleepTime = 2s
**ovs*.open_Flow_Processing.active2sleepTimePort=0.001s
**.hostovs*.open_Flow_Processing.portpower=0.1w
**.hostovs*.open_Flow_Processing.switchpower=10w 
**ovs*.open_Flow_Processing.portpower=1w
**ovs*.open_Flow_Processing.switchpower=36w
**ovs*.open_Flow_Processing.powerSampleTime=0.3s
#8-port switch: 2(in/out)*8*1G/(1500*8)=10^7/7.5 packets/s.
**ovs*.serviceTime=0.00000075s #change from 0.0000015
**ovs*.sendCompletePacket = true
**.ofa_switch.connectPort = 6633
**.ofa_switch.connectAddress = "controller"
**.buffer.capacity = 1000000 # change from 10
**.ofa_switch.flow_timeout = 200s
**ovs*.etherMAC[*].promiscuous = true
#**.controller.ofa_controller.address = 

# NIC configuration
**.ppp[*].queueType = "DropTailQueue" # in routers
**.ppp[*].queue.frameCapacity = 1000  # in routers

#*.configurator.networkAddress = "10.0.0.0"
*.configurator.networkAddress = "192.168.1.0"

**.mss = 1400#536
**.advertisedWindow=21440 #default is 14*mss
**.recordStats=true

#tcp
**.H*.numTcpApps = 2
**.H*.tcpApp[0].typename = "TCPOFMultiSendy"
**.H*.tcpApp[0].active = true
**.H*.tcpApp[0].localPort=-1

#**.H*.tcpApp[0].connectAddress = choose(int(intuniform(0,15)), moduleListByNedType("inet.nodes.inet.StandardHost"))

**.H*.tcpApp[0].connectPort=1000
**.H*.tcpApp[0].tOpen=0s
#**.H*.tcpApp[0].tSend=1s/poisson(16)
**.H*.tcpApp[0].tSend=0.001s/poisson(16)


#**.H*.tcpApp[0].sendBytes=640MiB #exponential(6400000B)
#**.H*.tcpApp[1].receiveBytes=640MiB
#**.H*.tcpApp[1].echoDelay=0s
#**.H*.tcpApp[0].sendBytes=6400000B
#**.H*.tcpApp[0].tClose=200s

**.H*.tcpApp[1].typename ="TCPSinkOFbased"
**.H*.tcpApp[1].localPort=1000
**.H*.tcpApp[1].sampleTime=0.3s

**.tcpApp[*]**.vector-recording = true
**.open_Flow_Processing**.vector-recording=true
**.vector-recording=false

**.tcpApp[*].dataTransferMode = "object"

[Config EXR-noweight]
description = "Forwarding with EX Routing"
**.H1.tcpApp[0].connectAddress = "BCube.H6"
**.H2.tcpApp[0].connectAddress = "BCube.H5"
**.H3.tcpApp[0].connectAddress = "BCube.H8"
**.H4.tcpApp[0].connectAddress = "BCube.H7"

**.H5.tcpApp[0].connectAddress = "BCube.H10"
**.H6.tcpApp[0].connectAddress = "BCube.H9"
**.H7.tcpApp[0].connectAddress = "BCube.H12"
**.H8.tcpApp[0].connectAddress = "BCube.H11"

**.H9.tcpApp[0].connectAddress = "BCube.H14"
**.H10.tcpApp[0].connectAddress = "BCube.H13"
**.H11.tcpApp[0].connectAddress = "BCube.H16"
**.H12.tcpApp[0].connectAddress = "BCube.H14"
**.H13.tcpApp[0].connectAddress = "BCube.H2"
**.H14.tcpApp[0].connectAddress = "BCube.H1"
**.H15.tcpApp[0].connectAddress = "BCube.H4"
**.H16.tcpApp[0].connectAddress = "BCube.H3"
#**.open_Flow_Processing.**.vector-recording = true
**controller.behavior = "ForwardingEXR"
**controller.ctrlApp.isWeightedNode=false
**.H*.tcpApp[0].flowScheduleType=1

[Config EXR-weight]
description = "Forwarding with EX Routing"
**.H1.tcpApp[0].connectAddress = "BCube.H6"
**.H2.tcpApp[0].connectAddress = "BCube.H5"
**.H3.tcpApp[0].connectAddress = "BCube.H8"
**.H4.tcpApp[0].connectAddress = "BCube.H7"

**.H5.tcpApp[0].connectAddress = "BCube.H10"
**.H6.tcpApp[0].connectAddress = "BCube.H9"
**.H7.tcpApp[0].connectAddress = "BCube.H12"
**.H8.tcpApp[0].connectAddress = "BCube.H11"

**.H9.tcpApp[0].connectAddress = "BCube.H14"
**.H10.tcpApp[0].connectAddress = "BCube.H13"
**.H11.tcpApp[0].connectAddress = "BCube.H16"
**.H12.tcpApp[0].connectAddress = "BCube.H14"
**.H13.tcpApp[0].connectAddress = "BCube.H2"
**.H14.tcpApp[0].connectAddress = "BCube.H1"
**.H15.tcpApp[0].connectAddress = "BCube.H4"
**.H16.tcpApp[0].connectAddress = "BCube.H3"

**controller.behavior = "ForwardingEXR"
**controller.ctrlApp.isWeightedNode=true
**.H*.tcpApp[0].flowScheduleType=1  
[Config SP]
**.H1.tcpApp[0].connectAddress = "BCube.H6"
**.H2.tcpApp[0].connectAddress = "BCube.H5"
**.H3.tcpApp[0].connectAddress = "BCube.H8"
**.H4.tcpApp[0].connectAddress = "BCube.H7"

**.H5.tcpApp[0].connectAddress = "BCube.H10"
**.H6.tcpApp[0].connectAddress = "BCube.H9"
**.H7.tcpApp[0].connectAddress = "BCube.H12"
**.H8.tcpApp[0].connectAddress = "BCube.H11"

**.H9.tcpApp[0].connectAddress = "BCube.H14"
**.H10.tcpApp[0].connectAddress = "BCube.H13"
**.H11.tcpApp[0].connectAddress = "BCube.H16"
**.H12.tcpApp[0].connectAddress = "BCube.H14"
**.H13.tcpApp[0].connectAddress = "BCube.H2"
**.H14.tcpApp[0].connectAddress = "BCube.H1"
**.H15.tcpApp[0].connectAddress = "BCube.H4"
**.H16.tcpApp[0].connectAddress = "BCube.H3"

description = "Forwarding with SP Routing"
**controller.behavior = "Forwarding"
**.H*.tcpApp[0].flowScheduleType=2


[Config BEERs-3agg]
description = "BEERs uniform flows"
#**.open_Flow_Processing.**.vector-recording = true
**controller.behavior = "BEERs"
**controller.ctrlApp.isWeightedNode=false
**controller.ctrlApp.max_multi_path_num = 2
**.H*.tcpApp[0].flowScheduleType=1
**controller.ctrlApp.linkcapacity=1000
**.H*.tcpApp[0].tSend=48s/poisson(16)#exponential(1s)#48s/poisson(16)
**.H*.tcpApp[0].sendBytes = uniform(36MiB,128MiB)#exponential(36MiB)#intuniform(36MiB,128MiB)#exponential(36MiB)
**.H*.tcpApp[0].tDeadline = 3s#800Mbps
**.H*.tcpApp[0].flowNum = 20000
**.H*.tcpApp[0].sendByteSum= 3000MB#30GB
**.H*.tcpApp[0].tClose=2000s
**.H*.tcpApp[0].sleepRatio=0.5
**.H9.tcpApp[0].connectAddress = "BCube.H10"
**.H10.tcpApp[0].connectAddress = "BCube.H9"
**.H1*.tcpApp[0].connectAddress = "BCube.H10"
**.H*.tcpApp[0].connectAddress = "BCube.H9"

[Config EXR-3agg]
description = "EX Routing uniform flows"
#**.open_Flow_Processing.**.vector-recording = true
**controller.behavior = "ForwardingEXR"
**controller.ctrlApp.isWeightedNode=false
**.H*.tcpApp[0].flowScheduleType=1
**.H*.tcpApp[0].tSend=exponential(1s)#48s/poisson(16)
**.H*.tcpApp[0].sendBytes = uniform(36MiB,128MiB)#exponential(36MiB)#intuniform(36MiB,128MiB)#exponential(36MiB)
**.H*.tcpApp[0].tDeadline = 3s#800Mbps
**.H*.tcpApp[0].flowNum = 20000
**.H*.tcpApp[0].sendByteSum= 3000MB#30GB
**.H*.tcpApp[0].tClose=2000s
**.H*.tcpApp[0].sleepRatio=0.5
**.H9.tcpApp[0].connectAddress = "BCube.H10"
**.H10.tcpApp[0].connectAddress = "BCube.H9"
**.H1*.tcpApp[0].connectAddress = "BCube.H10"
**.H*.tcpApp[0].connectAddress = "BCube.H9"

[Config SP-3agg]
description = "Forwarding with SP Routing"
**controller.behavior = "Forwarding"
**.H*.tcpApp[0].flowScheduleType=2
**.H*.tcpApp[0].tSend=exponential(1s)#48s/poisson(16)
**.H*.tcpApp[0].sendBytes = uniform(36MiB,128MiB)#exponential(36MiB)#intuniform(36MiB,128MiB)#exponential(36MiB)
**.H*.tcpApp[0].tDeadline = 3s#800Mbps
**.H*.tcpApp[0].flowNum = 20000
**.H*.tcpApp[0].sendByteSum= 3000MB#30GB
**.H*.tcpApp[0].tClose=2000s
**.H*.tcpApp[0].sleepRatio=0.5
**.H9.tcpApp[0].connectAddress = "BCube.H10"
**.H10.tcpApp[0].connectAddress = "BCube.H9"
**.H1*.tcpApp[0].connectAddress = "BCube.H10"
**.H*.tcpApp[0].connectAddress = "BCube.H9"





[Config BEERs-4agg]
description = "BEERs uniform flows"
#**.open_Flow_Processing.**.vector-recording = true
**controller.behavior = "BEERs"
**controller.ctrlApp.isWeightedNode=false
**controller.ctrlApp.max_multi_path_num = 2
**.H*.tcpApp[0].flowScheduleType=1
**controller.ctrlApp.linkcapacity=1000
**.H*.tcpApp[0].tSend=48s/poisson(16)#exponential(1s)#48s/poisson(16)
**.H*.tcpApp[0].sendBytes = uniform(36MiB,128MiB)#exponential(36MiB)#intuniform(36MiB,128MiB)#exponential(36MiB)
**.H*.tcpApp[0].tDeadline = 3s#800Mbps
**.H*.tcpApp[0].flowNum = 20000
**.H*.tcpApp[0].sendByteSum= 3000MB#30GB
**.H*.tcpApp[0].tClose=2000s
**.H*.tcpApp[0].sleepRatio=0.5
**.H1.tcpApp[0].connectAddress=choose(int(intuniform(0,14)),"H2 H3 H4 H5 H6 H7 H8 H9 H10 H11 H12 H13 H14 H15 H16 ")
**.H2.tcpApp[0].connectAddress=choose(int(intuniform(0,14)),"H1 H3 H4 H5 H6 H7 H8 H9 H10 H11 H12 H13 H14 H15 H16 ")
**.H3.tcpApp[0].connectAddress=choose(int(intuniform(0,14)),"H1 H2 H4 H5 H6 H7 H8 H9 H10 H11 H12 H13 H14 H15 H16 ")
**.H4.tcpApp[0].connectAddress=choose(int(intuniform(0,14)),"H1 H2 H3 H5 H6 H7 H8 H9 H10 H11 H12 H13 H14 H15 H16 ")
**.H5.tcpApp[0].connectAddress=choose(int(intuniform(0,14)),"H1 H2 H3 H4 H6 H7 H8 H9 H10 H11 H12 H13 H14 H15 H16 ")
**.H6.tcpApp[0].connectAddress=choose(int(intuniform(0,14)),"H1 H2 H3 H4 H5 H7 H8 H9 H10 H11 H12 H13 H14 H15 H16 ")
**.H7.tcpApp[0].connectAddress=choose(int(intuniform(0,14)),"H1 H2 H3 H4 H5 H6 H8 H9 H10 H11 H12 H13 H14 H15 H16 ")
**.H8.tcpApp[0].connectAddress=choose(int(intuniform(0,14)),"H1 H2 H3 H4 H5 H6 H7 H9 H10 H11 H12 H13 H14 H15 H16 ")
**.H9.tcpApp[0].connectAddress=choose(int(intuniform(0,14)),"H1 H2 H3 H4 H5 H6 H7 H8 H10 H11 H12 H13 H14 H15 H16 ")
**.H10.tcpApp[0].connectAddress=choose(int(intuniform(0,14)),"H1 H2 H3 H4 H5 H6 H7 H8 H9 H11 H12 H13 H14 H15 H16 ")
**.H11.tcpApp[0].connectAddress=choose(int(intuniform(0,14)),"H1 H2 H3 H4 H5 H6 H7 H8 H9 H10 H12 H13 H14 H15 H16 ")
**.H12.tcpApp[0].connectAddress=choose(int(intuniform(0,14)),"H1 H2 H3 H4 H5 H6 H7 H8 H9 H10 H11 H13 H14 H15 H16 ")
**.H13.tcpApp[0].connectAddress=choose(int(intuniform(0,14)),"H1 H2 H3 H4 H5 H6 H7 H8 H9 H10 H11 H12 H14 H15 H16 ")
**.H14.tcpApp[0].connectAddress=choose(int(intuniform(0,14)),"H1 H2 H3 H4 H5 H6 H7 H8 H9 H10 H11 H12 H13 H15 H16 ")
**.H15.tcpApp[0].connectAddress=choose(int(intuniform(0,14)),"H1 H2 H3 H4 H5 H6 H7 H8 H9 H10 H11 H12 H13 H14 H16 ")
**.H16.tcpApp[0].connectAddress=choose(int(intuniform(0,14)),"H1 H2 H3 H4 H5 H6 H7 H8 H9 H10 H11 H12 H13 H14 H15 ")

[Config EXR-4agg]
description = "EX Routing uniform flows"
#**.open_Flow_Processing.**.vector-recording = true
**controller.behavior = "ForwardingEXR"
**controller.ctrlApp.isWeightedNode=false
**.H*.tcpApp[0].flowScheduleType=1
**.H*.tcpApp[0].tSend=exponential(1s)#48s/poisson(16)
**.H*.tcpApp[0].sendBytes = uniform(36MiB,128MiB)#exponential(36MiB)#intuniform(36MiB,128MiB)#exponential(36MiB)
**.H*.tcpApp[0].tDeadline = 3s#800Mbps
**.H*.tcpApp[0].flowNum = 20000
**.H*.tcpApp[0].sendByteSum= 3000MB#30GB
**.H*.tcpApp[0].tClose=2000s
**.H*.tcpApp[0].sleepRatio=0.5
**.H1.tcpApp[0].connectAddress=choose(int(intuniform(0,14)),"H2 H3 H4 H5 H6 H7 H8 H9 H10 H11 H12 H13 H14 H15 H16 ")
**.H2.tcpApp[0].connectAddress=choose(int(intuniform(0,14)),"H1 H3 H4 H5 H6 H7 H8 H9 H10 H11 H12 H13 H14 H15 H16 ")
**.H3.tcpApp[0].connectAddress=choose(int(intuniform(0,14)),"H1 H2 H4 H5 H6 H7 H8 H9 H10 H11 H12 H13 H14 H15 H16 ")
**.H4.tcpApp[0].connectAddress=choose(int(intuniform(0,14)),"H1 H2 H3 H5 H6 H7 H8 H9 H10 H11 H12 H13 H14 H15 H16 ")
**.H5.tcpApp[0].connectAddress=choose(int(intuniform(0,14)),"H1 H2 H3 H4 H6 H7 H8 H9 H10 H11 H12 H13 H14 H15 H16 ")
**.H6.tcpApp[0].connectAddress=choose(int(intuniform(0,14)),"H1 H2 H3 H4 H5 H7 H8 H9 H10 H11 H12 H13 H14 H15 H16 ")
**.H7.tcpApp[0].connectAddress=choose(int(intuniform(0,14)),"H1 H2 H3 H4 H5 H6 H8 H9 H10 H11 H12 H13 H14 H15 H16 ")
**.H8.tcpApp[0].connectAddress=choose(int(intuniform(0,14)),"H1 H2 H3 H4 H5 H6 H7 H9 H10 H11 H12 H13 H14 H15 H16 ")
**.H9.tcpApp[0].connectAddress=choose(int(intuniform(0,14)),"H1 H2 H3 H4 H5 H6 H7 H8 H10 H11 H12 H13 H14 H15 H16 ")
**.H10.tcpApp[0].connectAddress=choose(int(intuniform(0,14)),"H1 H2 H3 H4 H5 H6 H7 H8 H9 H11 H12 H13 H14 H15 H16 ")
**.H11.tcpApp[0].connectAddress=choose(int(intuniform(0,14)),"H1 H2 H3 H4 H5 H6 H7 H8 H9 H10 H12 H13 H14 H15 H16 ")
**.H12.tcpApp[0].connectAddress=choose(int(intuniform(0,14)),"H1 H2 H3 H4 H5 H6 H7 H8 H9 H10 H11 H13 H14 H15 H16 ")
**.H13.tcpApp[0].connectAddress=choose(int(intuniform(0,14)),"H1 H2 H3 H4 H5 H6 H7 H8 H9 H10 H11 H12 H14 H15 H16 ")
**.H14.tcpApp[0].connectAddress=choose(int(intuniform(0,14)),"H1 H2 H3 H4 H5 H6 H7 H8 H9 H10 H11 H12 H13 H15 H16 ")
**.H15.tcpApp[0].connectAddress=choose(int(intuniform(0,14)),"H1 H2 H3 H4 H5 H6 H7 H8 H9 H10 H11 H12 H13 H14 H16 ")
**.H16.tcpApp[0].connectAddress=choose(int(intuniform(0,14)),"H1 H2 H3 H4 H5 H6 H7 H8 H9 H10 H11 H12 H13 H14 H15 ")

[Config SP-4agg]
description = "Forwarding with SP Routing"
**controller.behavior = "Forwarding"
**.H*.tcpApp[0].flowScheduleType=2
**.H*.tcpApp[0].tSend=exponential(1s)#48s/poisson(16)
**.H*.tcpApp[0].sendBytes = uniform(36MiB,128MiB)#exponential(36MiB)#intuniform(36MiB,128MiB)#exponential(36MiB)
**.H*.tcpApp[0].tDeadline = 3s#800Mbps
**.H*.tcpApp[0].flowNum = 20000
**.H*.tcpApp[0].sendByteSum= 3000MB#30GB
**.H*.tcpApp[0].tClose=2000s
**.H*.tcpApp[0].sleepRatio=0.5
**.H1.tcpApp[0].connectAddress=choose(int(intuniform(0,14)),"H2 H3 H4 H5 H6 H7 H8 H9 H10 H11 H12 H13 H14 H15 H16 ")
**.H2.tcpApp[0].connectAddress=choose(int(intuniform(0,14)),"H1 H3 H4 H5 H6 H7 H8 H9 H10 H11 H12 H13 H14 H15 H16 ")
**.H3.tcpApp[0].connectAddress=choose(int(intuniform(0,14)),"H1 H2 H4 H5 H6 H7 H8 H9 H10 H11 H12 H13 H14 H15 H16 ")
**.H4.tcpApp[0].connectAddress=choose(int(intuniform(0,14)),"H1 H2 H3 H5 H6 H7 H8 H9 H10 H11 H12 H13 H14 H15 H16 ")
**.H5.tcpApp[0].connectAddress=choose(int(intuniform(0,14)),"H1 H2 H3 H4 H6 H7 H8 H9 H10 H11 H12 H13 H14 H15 H16 ")
**.H6.tcpApp[0].connectAddress=choose(int(intuniform(0,14)),"H1 H2 H3 H4 H5 H7 H8 H9 H10 H11 H12 H13 H14 H15 H16 ")
**.H7.tcpApp[0].connectAddress=choose(int(intuniform(0,14)),"H1 H2 H3 H4 H5 H6 H8 H9 H10 H11 H12 H13 H14 H15 H16 ")
**.H8.tcpApp[0].connectAddress=choose(int(intuniform(0,14)),"H1 H2 H3 H4 H5 H6 H7 H9 H10 H11 H12 H13 H14 H15 H16 ")
**.H9.tcpApp[0].connectAddress=choose(int(intuniform(0,14)),"H1 H2 H3 H4 H5 H6 H7 H8 H10 H11 H12 H13 H14 H15 H16 ")
**.H10.tcpApp[0].connectAddress=choose(int(intuniform(0,14)),"H1 H2 H3 H4 H5 H6 H7 H8 H9 H11 H12 H13 H14 H15 H16 ")
**.H11.tcpApp[0].connectAddress=choose(int(intuniform(0,14)),"H1 H2 H3 H4 H5 H6 H7 H8 H9 H10 H12 H13 H14 H15 H16 ")
**.H12.tcpApp[0].connectAddress=choose(int(intuniform(0,14)),"H1 H2 H3 H4 H5 H6 H7 H8 H9 H10 H11 H13 H14 H15 H16 ")
**.H13.tcpApp[0].connectAddress=choose(int(intuniform(0,14)),"H1 H2 H3 H4 H5 H6 H7 H8 H9 H10 H11 H12 H14 H15 H16 ")
**.H14.tcpApp[0].connectAddress=choose(int(intuniform(0,14)),"H1 H2 H3 H4 H5 H6 H7 H8 H9 H10 H11 H12 H13 H15 H16 ")
**.H15.tcpApp[0].connectAddress=choose(int(intuniform(0,14)),"H1 H2 H3 H4 H5 H6 H7 H8 H9 H10 H11 H12 H13 H14 H16 ")
**.H16.tcpApp[0].connectAddress=choose(int(intuniform(0,14)),"H1 H2 H3 H4 H5 H6 H7 H8 H9 H10 H11 H12 H13 H14 H15 ")


[Config BEERs-a5agg]
description = "BEERs uniform flows"
#**.open_Flow_Processing.**.vector-recording = true
**controller.behavior = "BEERs"
**controller.ctrlApp.isWeightedNode=false
**controller.ctrlApp.max_multi_path_num = 1
**.H*.tcpApp[0].flowScheduleType=1
**controller.ctrlApp.linkcapacity=1000
**.H*.tcpApp[0].tSend=48s/poisson(16)#exponential(1s)#48s/poisson(16)
**.H*.tcpApp[0].sendBytes = uniform(36MiB,128MiB)#exponential(36MiB)#intuniform(36MiB,128MiB)#exponential(36MiB)
**.H*.tcpApp[0].tDeadline = 3s#800Mbps
**.H*.tcpApp[0].flowNum = 20000
**.H*.tcpApp[0].sendByteSum= 3000MB#30GB
**.H*.tcpApp[0].tClose=2000s
**.H*.tcpApp[0].sleepRatio=1
**.H1.tcpApp[0].connectAddress=choose(int(intuniform(0,14)),"H2 H3 H4 H5 H6 H7 H8 H9 H10 H11 H12 H13 H14 H15 H16 ")
**.H2.tcpApp[0].connectAddress=choose(int(intuniform(0,14)),"H1 H3 H4 H5 H6 H7 H8 H9 H10 H11 H12 H13 H14 H15 H16 ")
**.H3.tcpApp[0].connectAddress=choose(int(intuniform(0,14)),"H1 H2 H4 H5 H6 H7 H8 H9 H10 H11 H12 H13 H14 H15 H16 ")
**.H4.tcpApp[0].connectAddress=choose(int(intuniform(0,14)),"H1 H2 H3 H5 H6 H7 H8 H9 H10 H11 H12 H13 H14 H15 H16 ")
**.H5.tcpApp[0].connectAddress=choose(int(intuniform(0,14)),"H1 H2 H3 H4 H6 H7 H8 H9 H10 H11 H12 H13 H14 H15 H16 ")
**.H6.tcpApp[0].connectAddress=choose(int(intuniform(0,14)),"H1 H2 H3 H4 H5 H7 H8 H9 H10 H11 H12 H13 H14 H15 H16 ")
**.H7.tcpApp[0].connectAddress=choose(int(intuniform(0,14)),"H1 H2 H3 H4 H5 H6 H8 H9 H10 H11 H12 H13 H14 H15 H16 ")
**.H8.tcpApp[0].connectAddress=choose(int(intuniform(0,14)),"H1 H2 H3 H4 H5 H6 H7 H9 H10 H11 H12 H13 H14 H15 H16 ")
**.H9.tcpApp[0].connectAddress=choose(int(intuniform(0,14)),"H1 H2 H3 H4 H5 H6 H7 H8 H10 H11 H12 H13 H14 H15 H16 ")
**.H10.tcpApp[0].connectAddress=choose(int(intuniform(0,14)),"H1 H2 H3 H4 H5 H6 H7 H8 H9 H11 H12 H13 H14 H15 H16 ")
**.H11.tcpApp[0].connectAddress=choose(int(intuniform(0,14)),"H1 H2 H3 H4 H5 H6 H7 H8 H9 H10 H12 H13 H14 H15 H16 ")
**.H12.tcpApp[0].connectAddress=choose(int(intuniform(0,14)),"H1 H2 H3 H4 H5 H6 H7 H8 H9 H10 H11 H13 H14 H15 H16 ")
**.H13.tcpApp[0].connectAddress=choose(int(intuniform(0,14)),"H1 H2 H3 H4 H5 H6 H7 H8 H9 H10 H11 H12 H14 H15 H16 ")
**.H14.tcpApp[0].connectAddress=choose(int(intuniform(0,14)),"H1 H2 H3 H4 H5 H6 H7 H8 H9 H10 H11 H12 H13 H15 H16 ")
**.H15.tcpApp[0].connectAddress=choose(int(intuniform(0,14)),"H1 H2 H3 H4 H5 H6 H7 H8 H9 H10 H11 H12 H13 H14 H16 ")
**.H16.tcpApp[0].connectAddress=choose(int(intuniform(0,14)),"H1 H2 H3 H4 H5 H6 H7 H8 H9 H10 H11 H12 H13 H14 H15 ")

[Config BEERs-a15agg]
description = "BEERs uniform flows"
#**.open_Flow_Processing.**.vector-recording = true
**controller.behavior = "BEERs"
**controller.ctrlApp.isWeightedNode=false
**controller.ctrlApp.max_multi_path_num = 1
**.H*.tcpApp[0].flowScheduleType=1
**controller.ctrlApp.linkcapacity=1000
**.H*.tcpApp[0].tSend=48s/poisson(16)#exponential(1s)#48s/poisson(16)
**.H*.tcpApp[0].sendBytes = uniform(36MiB,128MiB)#exponential(36MiB)#intuniform(36MiB,128MiB)#exponential(36MiB)
**.H*.tcpApp[0].tDeadline = 3s#800Mbps
**.H*.tcpApp[0].flowNum = 20000
**.H*.tcpApp[0].sendByteSum= 3000MB#30GB
**.H*.tcpApp[0].tClose=2000s
**.H*.tcpApp[0].sleepRatio=1
**.H1.tcpApp[0].connectAddress=choose(int(intuniform(0,14)),"H2 H3 H4 H5 H6 H7 H8 H9 H10 H11 H12 H13 H14 H15 H16 ")
**.H2.tcpApp[0].connectAddress=choose(int(intuniform(0,14)),"H1 H3 H4 H5 H6 H7 H8 H9 H10 H11 H12 H13 H14 H15 H16 ")
**.H3.tcpApp[0].connectAddress=choose(int(intuniform(0,14)),"H1 H2 H4 H5 H6 H7 H8 H9 H10 H11 H12 H13 H14 H15 H16 ")
**.H4.tcpApp[0].connectAddress=choose(int(intuniform(0,14)),"H1 H2 H3 H5 H6 H7 H8 H9 H10 H11 H12 H13 H14 H15 H16 ")
**.H5.tcpApp[0].connectAddress=choose(int(intuniform(0,14)),"H1 H2 H3 H4 H6 H7 H8 H9 H10 H11 H12 H13 H14 H15 H16 ")
**.H6.tcpApp[0].connectAddress=choose(int(intuniform(0,14)),"H1 H2 H3 H4 H5 H7 H8 H9 H10 H11 H12 H13 H14 H15 H16 ")
**.H7.tcpApp[0].connectAddress=choose(int(intuniform(0,14)),"H1 H2 H3 H4 H5 H6 H8 H9 H10 H11 H12 H13 H14 H15 H16 ")
**.H8.tcpApp[0].connectAddress=choose(int(intuniform(0,14)),"H1 H2 H3 H4 H5 H6 H7 H9 H10 H11 H12 H13 H14 H15 H16 ")
**.H9.tcpApp[0].connectAddress=choose(int(intuniform(0,14)),"H1 H2 H3 H4 H5 H6 H7 H8 H10 H11 H12 H13 H14 H15 H16 ")
**.H10.tcpApp[0].connectAddress=choose(int(intuniform(0,14)),"H1 H2 H3 H4 H5 H6 H7 H8 H9 H11 H12 H13 H14 H15 H16 ")
**.H11.tcpApp[0].connectAddress=choose(int(intuniform(0,14)),"H1 H2 H3 H4 H5 H6 H7 H8 H9 H10 H12 H13 H14 H15 H16 ")
**.H12.tcpApp[0].connectAddress=choose(int(intuniform(0,14)),"H1 H2 H3 H4 H5 H6 H7 H8 H9 H10 H11 H13 H14 H15 H16 ")
**.H13.tcpApp[0].connectAddress=choose(int(intuniform(0,14)),"H1 H2 H3 H4 H5 H6 H7 H8 H9 H10 H11 H12 H14 H15 H16 ")
**.H14.tcpApp[0].connectAddress=choose(int(intuniform(0,14)),"H1 H2 H3 H4 H5 H6 H7 H8 H9 H10 H11 H12 H13 H15 H16 ")
**.H15.tcpApp[0].connectAddress=choose(int(intuniform(0,14)),"H1 H2 H3 H4 H5 H6 H7 H8 H9 H10 H11 H12 H13 H14 H16 ")
**.H16.tcpApp[0].connectAddress=choose(int(intuniform(0,14)),"H1 H2 H3 H4 H5 H6 H7 H8 H9 H10 H11 H12 H13 H14 H15 ")


[Config BEERs-b5agg]
description = "BEERs uniform flows"
#**.open_Flow_Processing.**.vector-recording = true
**controller.behavior = "BEERs"
**controller.ctrlApp.isWeightedNode=false
**controller.ctrlApp.max_multi_path_num = 2
**.H*.tcpApp[0].flowScheduleType=1
**controller.ctrlApp.linkcapacity=1000
**.H*.tcpApp[0].tSend=48s/poisson(16)#exponential(1s)#48s/poisson(16)
**.H*.tcpApp[0].sendBytes = uniform(36MiB,128MiB)#exponential(36MiB)#intuniform(36MiB,128MiB)#exponential(36MiB)
**.H*.tcpApp[0].tDeadline = 3s#800Mbps
**.H*.tcpApp[0].flowNum = 20000
**.H*.tcpApp[0].sendByteSum= 3000MB#30GB
**.H*.tcpApp[0].tClose=2000s
**.H*.tcpApp[0].sleepRatio=1
**.H1.tcpApp[0].connectAddress=choose(int(intuniform(0,14)),"H2 H3 H4 H5 H6 H7 H8 H9 H10 H11 H12 H13 H14 H15 H16 ")
**.H2.tcpApp[0].connectAddress=choose(int(intuniform(0,14)),"H1 H3 H4 H5 H6 H7 H8 H9 H10 H11 H12 H13 H14 H15 H16 ")
**.H3.tcpApp[0].connectAddress=choose(int(intuniform(0,14)),"H1 H2 H4 H5 H6 H7 H8 H9 H10 H11 H12 H13 H14 H15 H16 ")
**.H4.tcpApp[0].connectAddress=choose(int(intuniform(0,14)),"H1 H2 H3 H5 H6 H7 H8 H9 H10 H11 H12 H13 H14 H15 H16 ")
**.H5.tcpApp[0].connectAddress=choose(int(intuniform(0,14)),"H1 H2 H3 H4 H6 H7 H8 H9 H10 H11 H12 H13 H14 H15 H16 ")
**.H6.tcpApp[0].connectAddress=choose(int(intuniform(0,14)),"H1 H2 H3 H4 H5 H7 H8 H9 H10 H11 H12 H13 H14 H15 H16 ")
**.H7.tcpApp[0].connectAddress=choose(int(intuniform(0,14)),"H1 H2 H3 H4 H5 H6 H8 H9 H10 H11 H12 H13 H14 H15 H16 ")
**.H8.tcpApp[0].connectAddress=choose(int(intuniform(0,14)),"H1 H2 H3 H4 H5 H6 H7 H9 H10 H11 H12 H13 H14 H15 H16 ")
**.H9.tcpApp[0].connectAddress=choose(int(intuniform(0,14)),"H1 H2 H3 H4 H5 H6 H7 H8 H10 H11 H12 H13 H14 H15 H16 ")
**.H10.tcpApp[0].connectAddress=choose(int(intuniform(0,14)),"H1 H2 H3 H4 H5 H6 H7 H8 H9 H11 H12 H13 H14 H15 H16 ")
**.H11.tcpApp[0].connectAddress=choose(int(intuniform(0,14)),"H1 H2 H3 H4 H5 H6 H7 H8 H9 H10 H12 H13 H14 H15 H16 ")
**.H12.tcpApp[0].connectAddress=choose(int(intuniform(0,14)),"H1 H2 H3 H4 H5 H6 H7 H8 H9 H10 H11 H13 H14 H15 H16 ")
**.H13.tcpApp[0].connectAddress=choose(int(intuniform(0,14)),"H1 H2 H3 H4 H5 H6 H7 H8 H9 H10 H11 H12 H14 H15 H16 ")
**.H14.tcpApp[0].connectAddress=choose(int(intuniform(0,14)),"H1 H2 H3 H4 H5 H6 H7 H8 H9 H10 H11 H12 H13 H15 H16 ")
**.H15.tcpApp[0].connectAddress=choose(int(intuniform(0,14)),"H1 H2 H3 H4 H5 H6 H7 H8 H9 H10 H11 H12 H13 H14 H16 ")
**.H16.tcpApp[0].connectAddress=choose(int(intuniform(0,14)),"H1 H2 H3 H4 H5 H6 H7 H8 H9 H10 H11 H12 H13 H14 H15 ")


[Config BEERs-5agg]
description = "BEERs uniform flows"
#**.open_Flow_Processing.**.vector-recording = true
**controller.behavior = "BEERs"
**controller.ctrlApp.isWeightedNode=false
**controller.ctrlApp.max_multi_path_num = 2
**.H*.tcpApp[0].flowScheduleType=1
**controller.ctrlApp.linkcapacity=1000
**.H*.tcpApp[0].tSend=48s/poisson(16)#exponential(1s)#48s/poisson(16)
**.H*.tcpApp[0].sendBytes = uniform(36MiB,128MiB)#exponential(36MiB)#intuniform(36MiB,128MiB)#exponential(36MiB)
**.H*.tcpApp[0].tDeadline = 3s#800Mbps
**.H*.tcpApp[0].flowNum = 20000
**.H*.tcpApp[0].sendByteSum= 3000MB#30GB
**.H*.tcpApp[0].tClose=2000s
**.H*.tcpApp[0].sleepRatio=1
**.H1.tcpApp[0].connectAddress=choose(int(intuniform(0,14)),"H2 H3 H4 H5 H6 H7 H8 H9 H10 H11 H12 H13 H14 H15 H16 ")
**.H2.tcpApp[0].connectAddress=choose(int(intuniform(0,14)),"H1 H3 H4 H5 H6 H7 H8 H9 H10 H11 H12 H13 H14 H15 H16 ")
**.H3.tcpApp[0].connectAddress=choose(int(intuniform(0,14)),"H1 H2 H4 H5 H6 H7 H8 H9 H10 H11 H12 H13 H14 H15 H16 ")
**.H4.tcpApp[0].connectAddress=choose(int(intuniform(0,14)),"H1 H2 H3 H5 H6 H7 H8 H9 H10 H11 H12 H13 H14 H15 H16 ")
**.H5.tcpApp[0].connectAddress=choose(int(intuniform(0,14)),"H1 H2 H3 H4 H6 H7 H8 H9 H10 H11 H12 H13 H14 H15 H16 ")
**.H6.tcpApp[0].connectAddress=choose(int(intuniform(0,14)),"H1 H2 H3 H4 H5 H7 H8 H9 H10 H11 H12 H13 H14 H15 H16 ")
**.H7.tcpApp[0].connectAddress=choose(int(intuniform(0,14)),"H1 H2 H3 H4 H5 H6 H8 H9 H10 H11 H12 H13 H14 H15 H16 ")
**.H8.tcpApp[0].connectAddress=choose(int(intuniform(0,14)),"H1 H2 H3 H4 H5 H6 H7 H9 H10 H11 H12 H13 H14 H15 H16 ")
**.H9.tcpApp[0].connectAddress=choose(int(intuniform(0,14)),"H1 H2 H3 H4 H5 H6 H7 H8 H10 H11 H12 H13 H14 H15 H16 ")
**.H10.tcpApp[0].connectAddress=choose(int(intuniform(0,14)),"H1 H2 H3 H4 H5 H6 H7 H8 H9 H11 H12 H13 H14 H15 H16 ")
**.H11.tcpApp[0].connectAddress=choose(int(intuniform(0,14)),"H1 H2 H3 H4 H5 H6 H7 H8 H9 H10 H12 H13 H14 H15 H16 ")
**.H12.tcpApp[0].connectAddress=choose(int(intuniform(0,14)),"H1 H2 H3 H4 H5 H6 H7 H8 H9 H10 H11 H13 H14 H15 H16 ")
**.H13.tcpApp[0].connectAddress=choose(int(intuniform(0,14)),"H1 H2 H3 H4 H5 H6 H7 H8 H9 H10 H11 H12 H14 H15 H16 ")
**.H14.tcpApp[0].connectAddress=choose(int(intuniform(0,14)),"H1 H2 H3 H4 H5 H6 H7 H8 H9 H10 H11 H12 H13 H15 H16 ")
**.H15.tcpApp[0].connectAddress=choose(int(intuniform(0,14)),"H1 H2 H3 H4 H5 H6 H7 H8 H9 H10 H11 H12 H13 H14 H16 ")
**.H16.tcpApp[0].connectAddress=choose(int(intuniform(0,14)),"H1 H2 H3 H4 H5 H6 H7 H8 H9 H10 H11 H12 H13 H14 H15 ")

[Config EXR-5agg]
description = "EX Routing uniform flows"
#**.open_Flow_Processing.**.vector-recording = true
**controller.behavior = "ForwardingEXR"
**controller.ctrlApp.isWeightedNode=false
**.H*.tcpApp[0].flowScheduleType=1
**.H*.tcpApp[0].tSend=exponential(1s)#48s/poisson(16)
**.H*.tcpApp[0].sendBytes = uniform(36MiB,128MiB)#exponential(36MiB)#intuniform(36MiB,128MiB)#exponential(36MiB)
**.H*.tcpApp[0].tDeadline = 3s#800Mbps
**.H*.tcpApp[0].flowNum = 20000
**.H*.tcpApp[0].sendByteSum= 3000MB#30GB
**.H*.tcpApp[0].tClose=2000s
**.H*.tcpApp[0].sleepRatio=1
**.H1.tcpApp[0].connectAddress=choose(int(intuniform(0,14)),"H2 H3 H4 H5 H6 H7 H8 H9 H10 H11 H12 H13 H14 H15 H16 ")
**.H2.tcpApp[0].connectAddress=choose(int(intuniform(0,14)),"H1 H3 H4 H5 H6 H7 H8 H9 H10 H11 H12 H13 H14 H15 H16 ")
**.H3.tcpApp[0].connectAddress=choose(int(intuniform(0,14)),"H1 H2 H4 H5 H6 H7 H8 H9 H10 H11 H12 H13 H14 H15 H16 ")
**.H4.tcpApp[0].connectAddress=choose(int(intuniform(0,14)),"H1 H2 H3 H5 H6 H7 H8 H9 H10 H11 H12 H13 H14 H15 H16 ")
**.H5.tcpApp[0].connectAddress=choose(int(intuniform(0,14)),"H1 H2 H3 H4 H6 H7 H8 H9 H10 H11 H12 H13 H14 H15 H16 ")
**.H6.tcpApp[0].connectAddress=choose(int(intuniform(0,14)),"H1 H2 H3 H4 H5 H7 H8 H9 H10 H11 H12 H13 H14 H15 H16 ")
**.H7.tcpApp[0].connectAddress=choose(int(intuniform(0,14)),"H1 H2 H3 H4 H5 H6 H8 H9 H10 H11 H12 H13 H14 H15 H16 ")
**.H8.tcpApp[0].connectAddress=choose(int(intuniform(0,14)),"H1 H2 H3 H4 H5 H6 H7 H9 H10 H11 H12 H13 H14 H15 H16 ")
**.H9.tcpApp[0].connectAddress=choose(int(intuniform(0,14)),"H1 H2 H3 H4 H5 H6 H7 H8 H10 H11 H12 H13 H14 H15 H16 ")
**.H10.tcpApp[0].connectAddress=choose(int(intuniform(0,14)),"H1 H2 H3 H4 H5 H6 H7 H8 H9 H11 H12 H13 H14 H15 H16 ")
**.H11.tcpApp[0].connectAddress=choose(int(intuniform(0,14)),"H1 H2 H3 H4 H5 H6 H7 H8 H9 H10 H12 H13 H14 H15 H16 ")
**.H12.tcpApp[0].connectAddress=choose(int(intuniform(0,14)),"H1 H2 H3 H4 H5 H6 H7 H8 H9 H10 H11 H13 H14 H15 H16 ")
**.H13.tcpApp[0].connectAddress=choose(int(intuniform(0,14)),"H1 H2 H3 H4 H5 H6 H7 H8 H9 H10 H11 H12 H14 H15 H16 ")
**.H14.tcpApp[0].connectAddress=choose(int(intuniform(0,14)),"H1 H2 H3 H4 H5 H6 H7 H8 H9 H10 H11 H12 H13 H15 H16 ")
**.H15.tcpApp[0].connectAddress=choose(int(intuniform(0,14)),"H1 H2 H3 H4 H5 H6 H7 H8 H9 H10 H11 H12 H13 H14 H16 ")
**.H16.tcpApp[0].connectAddress=choose(int(intuniform(0,14)),"H1 H2 H3 H4 H5 H6 H7 H8 H9 H10 H11 H12 H13 H14 H15 ")

[Config SP-5agg]
description = "Forwarding with SP Routing"
**controller.behavior = "Forwarding"
**.H*.tcpApp[0].flowScheduleType=2
**.H*.tcpApp[0].tSend=exponential(1s)#48s/poisson(16)
**.H*.tcpApp[0].sendBytes = uniform(36MiB,128MiB)#exponential(36MiB)#intuniform(36MiB,128MiB)#exponential(36MiB)
**.H*.tcpApp[0].tDeadline = 3s#800Mbps
**.H*.tcpApp[0].flowNum = 20000
**.H*.tcpApp[0].sendByteSum= 3000MB#30GB
**.H*.tcpApp[0].tClose=2000s
**.H*.tcpApp[0].sleepRatio=1
**.H1.tcpApp[0].connectAddress=choose(int(intuniform(0,14)),"H2 H3 H4 H5 H6 H7 H8 H9 H10 H11 H12 H13 H14 H15 H16 ")
**.H2.tcpApp[0].connectAddress=choose(int(intuniform(0,14)),"H1 H3 H4 H5 H6 H7 H8 H9 H10 H11 H12 H13 H14 H15 H16 ")
**.H3.tcpApp[0].connectAddress=choose(int(intuniform(0,14)),"H1 H2 H4 H5 H6 H7 H8 H9 H10 H11 H12 H13 H14 H15 H16 ")
**.H4.tcpApp[0].connectAddress=choose(int(intuniform(0,14)),"H1 H2 H3 H5 H6 H7 H8 H9 H10 H11 H12 H13 H14 H15 H16 ")
**.H5.tcpApp[0].connectAddress=choose(int(intuniform(0,14)),"H1 H2 H3 H4 H6 H7 H8 H9 H10 H11 H12 H13 H14 H15 H16 ")
**.H6.tcpApp[0].connectAddress=choose(int(intuniform(0,14)),"H1 H2 H3 H4 H5 H7 H8 H9 H10 H11 H12 H13 H14 H15 H16 ")
**.H7.tcpApp[0].connectAddress=choose(int(intuniform(0,14)),"H1 H2 H3 H4 H5 H6 H8 H9 H10 H11 H12 H13 H14 H15 H16 ")
**.H8.tcpApp[0].connectAddress=choose(int(intuniform(0,14)),"H1 H2 H3 H4 H5 H6 H7 H9 H10 H11 H12 H13 H14 H15 H16 ")
**.H9.tcpApp[0].connectAddress=choose(int(intuniform(0,14)),"H1 H2 H3 H4 H5 H6 H7 H8 H10 H11 H12 H13 H14 H15 H16 ")
**.H10.tcpApp[0].connectAddress=choose(int(intuniform(0,14)),"H1 H2 H3 H4 H5 H6 H7 H8 H9 H11 H12 H13 H14 H15 H16 ")
**.H11.tcpApp[0].connectAddress=choose(int(intuniform(0,14)),"H1 H2 H3 H4 H5 H6 H7 H8 H9 H10 H12 H13 H14 H15 H16 ")
**.H12.tcpApp[0].connectAddress=choose(int(intuniform(0,14)),"H1 H2 H3 H4 H5 H6 H7 H8 H9 H10 H11 H13 H14 H15 H16 ")
**.H13.tcpApp[0].connectAddress=choose(int(intuniform(0,14)),"H1 H2 H3 H4 H5 H6 H7 H8 H9 H10 H11 H12 H14 H15 H16 ")
**.H14.tcpApp[0].connectAddress=choose(int(intuniform(0,14)),"H1 H2 H3 H4 H5 H6 H7 H8 H9 H10 H11 H12 H13 H15 H16 ")
**.H15.tcpApp[0].connectAddress=choose(int(intuniform(0,14)),"H1 H2 H3 H4 H5 H6 H7 H8 H9 H10 H11 H12 H13 H14 H16 ")
**.H16.tcpApp[0].connectAddress=choose(int(intuniform(0,14)),"H1 H2 H3 H4 H5 H6 H7 H8 H9 H10 H11 H12 H13 H14 H15 ")