[General]
network =DCN_FatTree4G
#network = Scenario_Small

#-6.4MB-48W2WRandomSend
debug-statistics-recording = false
output-scalar-file = ${resultdir}/${inifile}/${configname}-${runnumber}.sca
debug-on-errors = false

#ARP should be allocated by controller, otherwise the arp broadcast would ruin the simulation.
output-vector-file = ${resultdir}/${inifile}/${configname}-${runnumber}.vec
sim-time-limit = 110s
simtime-scale = -12

#ARP should be allocated by controller, otherwise the arp broadcast would ruin the simulation.
**.controller.ctrlApp.isArpOracle = true
#**controller.behavior = "ForwardingEXR"
**.controller.ofa_controller.port=6633
#**.ovs*.open_Flow_Processing.active2sleepTime = 0.0002s
**.ovs*.open_Flow_Processing.active2sleepTime = 2s
**.ovs*.open_Flow_Processing.active2sleepTimePort=0.001s 
**.ovs*.open_Flow_Processing.portpower=1w
**.ovs*.open_Flow_Processing.switchpower=36w
**.ovs*.open_Flow_Processing.linkCapacity = 1000 #Mbps
**.ovs*.open_Flow_Processing.portNum = 4
#8-port switch: 2(in/out)*8*1G/(1500*8)=10^7/7.5 packets/s.
**.ovs*.serviceTime=0.00000075s #change from 0.0000015
**.ovs*.sendCompletePacket = true
**.ofa_switch.connectPort = 6633
**.ofa_switch.connectAddress = "controller"
**.buffer.capacity = 1000000 # change from 10
**.ofa_switch.flow_timeout = 200s
**.ovs*.etherMAC[*].promiscuous = true
#**.controller.ofa_controller.address = 

# NIC configuration
**.ppp[*].queueType = "DropTailQueue" # in routers
**.ppp[*].queue.frameCapacity = 1000  # in routers

#*.configurator.networkAddress = "10.0.0.0"
*.configurator.networkAddress = "192.168.1.0"

**.mss = 1400#536
**.advertisedWindow=21440 #default is 14*mss
**.recordStats=true

#tcp
**.H*.numTcpApps = 2
**.H*.tcpApp[0].typename = "TCPOFMultiSendy"
**.H*.tcpApp[0].active = true
**.H*.tcpApp[0].localPort=1001 #-1
**.H*.tcpApp[0].connectPort=1000
**.H*.tcpApp[0].tOpen=0s
#**.H*.tcpApp[0].tSend=1s/poisson(16)
**.H*.tcpApp[0].tSend=0.001s/poisson(16)
**.H*.tcpApp[0].sendBytes = exponential(18MiB) #exponential(6400000B) # the file size.
#100,000,000=1235989, 5499321, 5823907, 3936111, 4666752, 5691487, 2772769, 1374888, 
#1557822, 2092228, 4729836, 3904994, 2775918, 5919930, 3850459, 572095, 2225394, 5029640, 
#885592, 4052463, 1918763, 203910, 510342, 3249714, 1809676, 3182519, 4877013, 5074254, 
#3802604, 485007, 3634605, 96365395
**.H*.tcpApp[0].tDeadline = 18s#800Mbps
**.H*.tcpApp[0].flowNum = 10
**.H*.tcpApp[0].sendByteSum= 3000MB
**.H*.tcpApp[0].tClose=200s
**.H*.tcpApp[0].arrivalTime=exponential(0.5s)
#**.H*.tcpApp[1].receiveBytes=10MiB #should equal to the send bytes.
**.H*.tcpApp[1].echoDelay=0s
**.H*.tcpApp[1].typename ="TCPSinkOFbased"
**.H*.tcpApp[1].localPort=1000

**.tcpApp[*]**.vector-recording = true
**.open_Flow_Processing**.vector-recording=true
**.vector-recording=false

**.ovs*.open_Flow_Processing.powerSampleTime=0.03s
**.H*.tcpApp[1].sampleTime=0.03s
**.tcpApp[*].dataTransferMode = "object"
[Config EXR-aggr10-29]
#30GB，2000s, random flow，(180MB, 18s== 80Mbps/flow), arrival time=3s
**.H*.tcpApp[0].tSend=48s/poisson(16)
**.H*.tcpApp[0].sendBytes = exponential(70MiB)
**.H*.tcpApp[0].tDeadline = 1s#800Mbps
**.H*.tcpApp[0].flowNum = 20000
**.H*.tcpApp[0].sendByteSum= 3000MB#30GB
**.H*.tcpApp[0].tClose=2000s
**.H*.tcpApp[0].sleepRatio=0.02

**.H1.tcpApp[0].connectAddress=choose(int(intuniform(0,14)),"H2 H3 H4 H5 H6 H7 H8 H9 H10 H11 H12 H13 H14 H15 H16 ")
**.H2.tcpApp[0].connectAddress=choose(int(intuniform(0,14)),"H1 H3 H4 H5 H6 H7 H8 H9 H10 H11 H12 H13 H14 H15 H16 ")
**.H3.tcpApp[0].connectAddress=choose(int(intuniform(0,14)),"H1 H2 H4 H5 H6 H7 H8 H9 H10 H11 H12 H13 H14 H15 H16 ")
**.H4.tcpApp[0].connectAddress=choose(int(intuniform(0,14)),"H1 H2 H3 H5 H6 H7 H8 H9 H10 H11 H12 H13 H14 H15 H16 ")
**.H5.tcpApp[0].connectAddress=choose(int(intuniform(0,14)),"H1 H2 H3 H4 H6 H7 H8 H9 H10 H11 H12 H13 H14 H15 H16 ")
**.H6.tcpApp[0].connectAddress=choose(int(intuniform(0,14)),"H1 H2 H3 H4 H5 H7 H8 H9 H10 H11 H12 H13 H14 H15 H16 ")
**.H7.tcpApp[0].connectAddress=choose(int(intuniform(0,14)),"H1 H2 H3 H4 H5 H6 H8 H9 H10 H11 H12 H13 H14 H15 H16 ")
**.H8.tcpApp[0].connectAddress=choose(int(intuniform(0,14)),"H1 H2 H3 H4 H5 H6 H7 H9 H10 H11 H12 H13 H14 H15 H16 ")
**.H9.tcpApp[0].connectAddress=choose(int(intuniform(0,14)),"H1 H2 H3 H4 H5 H6 H7 H8 H10 H11 H12 H13 H14 H15 H16 ")
**.H10.tcpApp[0].connectAddress=choose(int(intuniform(0,14)),"H1 H2 H3 H4 H5 H6 H7 H8 H9 H11 H12 H13 H14 H15 H16 ")
**.H11.tcpApp[0].connectAddress=choose(int(intuniform(0,14)),"H1 H2 H3 H4 H5 H6 H7 H8 H9 H10 H12 H13 H14 H15 H16 ")
**.H12.tcpApp[0].connectAddress=choose(int(intuniform(0,14)),"H1 H2 H3 H4 H5 H6 H7 H8 H9 H10 H11 H13 H14 H15 H16 ")
**.H13.tcpApp[0].connectAddress=choose(int(intuniform(0,14)),"H1 H2 H3 H4 H5 H6 H7 H8 H9 H10 H11 H12 H14 H15 H16 ")
**.H14.tcpApp[0].connectAddress=choose(int(intuniform(0,14)),"H1 H2 H3 H4 H5 H6 H7 H8 H9 H10 H11 H12 H13 H15 H16 ")
**.H15.tcpApp[0].connectAddress=choose(int(intuniform(0,14)),"H1 H2 H3 H4 H5 H6 H7 H8 H9 H10 H11 H12 H13 H14 H16 ")
**.H16.tcpApp[0].connectAddress=choose(int(intuniform(0,14)),"H1 H2 H3 H4 H5 H6 H7 H8 H9 H10 H11 H12 H13 H14 H15 ")

description = "Forwarding with EX Routing"
#**.open_Flow_Processing.**.vector-recording = true
**controller.behavior = "ForwardingEXR"
**controller.ctrlApp.isWeightedNode=false
**.H*.tcpApp[0].flowScheduleType=1
[Config EXR-aggr10-28]
#30GB，2000s, random flow，(180MB, 18s== 80Mbps/flow), arrival time=3s
**.H*.tcpApp[0].tSend=48s/poisson(16)
**.H*.tcpApp[0].sendBytes = exponential(50MiB)
**.H*.tcpApp[0].tDeadline = 1s#800Mbps
**.H*.tcpApp[0].flowNum = 20000
**.H*.tcpApp[0].sendByteSum= 3000MB#30GB
**.H*.tcpApp[0].tClose=2000s
**.H*.tcpApp[0].sleepRatio=0.02

**.H1.tcpApp[0].connectAddress=choose(int(intuniform(0,14)),"H2 H3 H4 H5 H6 H7 H8 H9 H10 H11 H12 H13 H14 H15 H16 ")
**.H2.tcpApp[0].connectAddress=choose(int(intuniform(0,14)),"H1 H3 H4 H5 H6 H7 H8 H9 H10 H11 H12 H13 H14 H15 H16 ")
**.H3.tcpApp[0].connectAddress=choose(int(intuniform(0,14)),"H1 H2 H4 H5 H6 H7 H8 H9 H10 H11 H12 H13 H14 H15 H16 ")
**.H4.tcpApp[0].connectAddress=choose(int(intuniform(0,14)),"H1 H2 H3 H5 H6 H7 H8 H9 H10 H11 H12 H13 H14 H15 H16 ")
**.H5.tcpApp[0].connectAddress=choose(int(intuniform(0,14)),"H1 H2 H3 H4 H6 H7 H8 H9 H10 H11 H12 H13 H14 H15 H16 ")
**.H6.tcpApp[0].connectAddress=choose(int(intuniform(0,14)),"H1 H2 H3 H4 H5 H7 H8 H9 H10 H11 H12 H13 H14 H15 H16 ")
**.H7.tcpApp[0].connectAddress=choose(int(intuniform(0,14)),"H1 H2 H3 H4 H5 H6 H8 H9 H10 H11 H12 H13 H14 H15 H16 ")
**.H8.tcpApp[0].connectAddress=choose(int(intuniform(0,14)),"H1 H2 H3 H4 H5 H6 H7 H9 H10 H11 H12 H13 H14 H15 H16 ")
**.H9.tcpApp[0].connectAddress=choose(int(intuniform(0,14)),"H1 H2 H3 H4 H5 H6 H7 H8 H10 H11 H12 H13 H14 H15 H16 ")
**.H10.tcpApp[0].connectAddress=choose(int(intuniform(0,14)),"H1 H2 H3 H4 H5 H6 H7 H8 H9 H11 H12 H13 H14 H15 H16 ")
**.H11.tcpApp[0].connectAddress=choose(int(intuniform(0,14)),"H1 H2 H3 H4 H5 H6 H7 H8 H9 H10 H12 H13 H14 H15 H16 ")
**.H12.tcpApp[0].connectAddress=choose(int(intuniform(0,14)),"H1 H2 H3 H4 H5 H6 H7 H8 H9 H10 H11 H13 H14 H15 H16 ")
**.H13.tcpApp[0].connectAddress=choose(int(intuniform(0,14)),"H1 H2 H3 H4 H5 H6 H7 H8 H9 H10 H11 H12 H14 H15 H16 ")
**.H14.tcpApp[0].connectAddress=choose(int(intuniform(0,14)),"H1 H2 H3 H4 H5 H6 H7 H8 H9 H10 H11 H12 H13 H15 H16 ")
**.H15.tcpApp[0].connectAddress=choose(int(intuniform(0,14)),"H1 H2 H3 H4 H5 H6 H7 H8 H9 H10 H11 H12 H13 H14 H16 ")
**.H16.tcpApp[0].connectAddress=choose(int(intuniform(0,14)),"H1 H2 H3 H4 H5 H6 H7 H8 H9 H10 H11 H12 H13 H14 H15 ")

description = "Forwarding with EX Routing"
#**.open_Flow_Processing.**.vector-recording = true
**controller.behavior = "ForwardingEXR"
**controller.ctrlApp.isWeightedNode=false
**.H*.tcpApp[0].flowScheduleType=1
[Config EXR-aggr10-27]
#30GB，2000s, random flow，(180MB, 18s== 80Mbps/flow), arrival time=3s
**.H*.tcpApp[0].tSend=48s/poisson(16)
**.H*.tcpApp[0].sendBytes = exponential(40MiB)
**.H*.tcpApp[0].tDeadline = 1s#800Mbps
**.H*.tcpApp[0].flowNum = 20000
**.H*.tcpApp[0].sendByteSum= 3000MB#30GB
**.H*.tcpApp[0].tClose=2000s
**.H*.tcpApp[0].sleepRatio=0.02

**.H1.tcpApp[0].connectAddress=choose(int(intuniform(0,14)),"H2 H3 H4 H5 H6 H7 H8 H9 H10 H11 H12 H13 H14 H15 H16 ")
**.H2.tcpApp[0].connectAddress=choose(int(intuniform(0,14)),"H1 H3 H4 H5 H6 H7 H8 H9 H10 H11 H12 H13 H14 H15 H16 ")
**.H3.tcpApp[0].connectAddress=choose(int(intuniform(0,14)),"H1 H2 H4 H5 H6 H7 H8 H9 H10 H11 H12 H13 H14 H15 H16 ")
**.H4.tcpApp[0].connectAddress=choose(int(intuniform(0,14)),"H1 H2 H3 H5 H6 H7 H8 H9 H10 H11 H12 H13 H14 H15 H16 ")
**.H5.tcpApp[0].connectAddress=choose(int(intuniform(0,14)),"H1 H2 H3 H4 H6 H7 H8 H9 H10 H11 H12 H13 H14 H15 H16 ")
**.H6.tcpApp[0].connectAddress=choose(int(intuniform(0,14)),"H1 H2 H3 H4 H5 H7 H8 H9 H10 H11 H12 H13 H14 H15 H16 ")
**.H7.tcpApp[0].connectAddress=choose(int(intuniform(0,14)),"H1 H2 H3 H4 H5 H6 H8 H9 H10 H11 H12 H13 H14 H15 H16 ")
**.H8.tcpApp[0].connectAddress=choose(int(intuniform(0,14)),"H1 H2 H3 H4 H5 H6 H7 H9 H10 H11 H12 H13 H14 H15 H16 ")
**.H9.tcpApp[0].connectAddress=choose(int(intuniform(0,14)),"H1 H2 H3 H4 H5 H6 H7 H8 H10 H11 H12 H13 H14 H15 H16 ")
**.H10.tcpApp[0].connectAddress=choose(int(intuniform(0,14)),"H1 H2 H3 H4 H5 H6 H7 H8 H9 H11 H12 H13 H14 H15 H16 ")
**.H11.tcpApp[0].connectAddress=choose(int(intuniform(0,14)),"H1 H2 H3 H4 H5 H6 H7 H8 H9 H10 H12 H13 H14 H15 H16 ")
**.H12.tcpApp[0].connectAddress=choose(int(intuniform(0,14)),"H1 H2 H3 H4 H5 H6 H7 H8 H9 H10 H11 H13 H14 H15 H16 ")
**.H13.tcpApp[0].connectAddress=choose(int(intuniform(0,14)),"H1 H2 H3 H4 H5 H6 H7 H8 H9 H10 H11 H12 H14 H15 H16 ")
**.H14.tcpApp[0].connectAddress=choose(int(intuniform(0,14)),"H1 H2 H3 H4 H5 H6 H7 H8 H9 H10 H11 H12 H13 H15 H16 ")
**.H15.tcpApp[0].connectAddress=choose(int(intuniform(0,14)),"H1 H2 H3 H4 H5 H6 H7 H8 H9 H10 H11 H12 H13 H14 H16 ")
**.H16.tcpApp[0].connectAddress=choose(int(intuniform(0,14)),"H1 H2 H3 H4 H5 H6 H7 H8 H9 H10 H11 H12 H13 H14 H15 ")

description = "Forwarding with EX Routing"
#**.open_Flow_Processing.**.vector-recording = true
**controller.behavior = "ForwardingEXR"
**controller.ctrlApp.isWeightedNode=false
**.H*.tcpApp[0].flowScheduleType=1
[Config BEERs-aggr10-29]
#30GB，2000s, random flow，(180MB, 18s== 80Mbps/flow), arrival time=3s
**.H*.tcpApp[0].tSend=48s/poisson(16)
**.H*.tcpApp[0].sendBytes = exponential(70MiB)
**.H*.tcpApp[0].tDeadline = 1s#800Mbps
**.H*.tcpApp[0].flowNum = 20000
**.H*.tcpApp[0].sendByteSum= 3000MB#30GB
**.H*.tcpApp[0].tClose=2000s
**.H*.tcpApp[0].sleepRatio=0.02
**.H1.tcpApp[0].connectAddress=choose(int(intuniform(0,14)),"H2 H3 H4 H5 H6 H7 H8 H9 H10 H11 H12 H13 H14 H15 H16 ")
**.H2.tcpApp[0].connectAddress=choose(int(intuniform(0,14)),"H1 H3 H4 H5 H6 H7 H8 H9 H10 H11 H12 H13 H14 H15 H16 ")
**.H3.tcpApp[0].connectAddress=choose(int(intuniform(0,14)),"H1 H2 H4 H5 H6 H7 H8 H9 H10 H11 H12 H13 H14 H15 H16 ")
**.H4.tcpApp[0].connectAddress=choose(int(intuniform(0,14)),"H1 H2 H3 H5 H6 H7 H8 H9 H10 H11 H12 H13 H14 H15 H16 ")
**.H5.tcpApp[0].connectAddress=choose(int(intuniform(0,14)),"H1 H2 H3 H4 H6 H7 H8 H9 H10 H11 H12 H13 H14 H15 H16 ")
**.H6.tcpApp[0].connectAddress=choose(int(intuniform(0,14)),"H1 H2 H3 H4 H5 H7 H8 H9 H10 H11 H12 H13 H14 H15 H16 ")
**.H7.tcpApp[0].connectAddress=choose(int(intuniform(0,14)),"H1 H2 H3 H4 H5 H6 H8 H9 H10 H11 H12 H13 H14 H15 H16 ")
**.H8.tcpApp[0].connectAddress=choose(int(intuniform(0,14)),"H1 H2 H3 H4 H5 H6 H7 H9 H10 H11 H12 H13 H14 H15 H16 ")
**.H9.tcpApp[0].connectAddress=choose(int(intuniform(0,14)),"H1 H2 H3 H4 H5 H6 H7 H8 H10 H11 H12 H13 H14 H15 H16 ")
**.H10.tcpApp[0].connectAddress=choose(int(intuniform(0,14)),"H1 H2 H3 H4 H5 H6 H7 H8 H9 H11 H12 H13 H14 H15 H16 ")
**.H11.tcpApp[0].connectAddress=choose(int(intuniform(0,14)),"H1 H2 H3 H4 H5 H6 H7 H8 H9 H10 H12 H13 H14 H15 H16 ")
**.H12.tcpApp[0].connectAddress=choose(int(intuniform(0,14)),"H1 H2 H3 H4 H5 H6 H7 H8 H9 H10 H11 H13 H14 H15 H16 ")
**.H13.tcpApp[0].connectAddress=choose(int(intuniform(0,14)),"H1 H2 H3 H4 H5 H6 H7 H8 H9 H10 H11 H12 H14 H15 H16 ")
**.H14.tcpApp[0].connectAddress=choose(int(intuniform(0,14)),"H1 H2 H3 H4 H5 H6 H7 H8 H9 H10 H11 H12 H13 H15 H16 ")
**.H15.tcpApp[0].connectAddress=choose(int(intuniform(0,14)),"H1 H2 H3 H4 H5 H6 H7 H8 H9 H10 H11 H12 H13 H14 H16 ")
**.H16.tcpApp[0].connectAddress=choose(int(intuniform(0,14)),"H1 H2 H3 H4 H5 H6 H7 H8 H9 H10 H11 H12 H13 H14 H15 ")
description = "Forwarding with EX Routing"
#**.open_Flow_Processing.**.vector-recording = true
**controller.behavior = "BEERs"
**controller.ctrlApp.isWeightedNode=false
**controller.ctrlApp.max_multi_path_num = 2
**.H*.tcpApp[0].flowScheduleType=1
**controller.ctrlApp.linkcapacity=1000#Mbps
[Config BEERs-aggr10-28]
#30GB，2000s, random flow，(180MB, 18s== 80Mbps/flow), arrival time=3s
**.H*.tcpApp[0].tSend=48s/poisson(16)
**.H*.tcpApp[0].sendBytes = exponential(50MiB)
**.H*.tcpApp[0].tDeadline = 3s#800Mbps
**.H*.tcpApp[0].flowNum = 20000
**.H*.tcpApp[0].sendByteSum= 3000MB#30GB
**.H*.tcpApp[0].tClose=2000s
**.H*.tcpApp[0].sleepRatio=0.02
**.H1.tcpApp[0].connectAddress=choose(int(intuniform(0,14)),"H2 H3 H4 H5 H6 H7 H8 H9 H10 H11 H12 H13 H14 H15 H16 ")
**.H2.tcpApp[0].connectAddress=choose(int(intuniform(0,14)),"H1 H3 H4 H5 H6 H7 H8 H9 H10 H11 H12 H13 H14 H15 H16 ")
**.H3.tcpApp[0].connectAddress=choose(int(intuniform(0,14)),"H1 H2 H4 H5 H6 H7 H8 H9 H10 H11 H12 H13 H14 H15 H16 ")
**.H4.tcpApp[0].connectAddress=choose(int(intuniform(0,14)),"H1 H2 H3 H5 H6 H7 H8 H9 H10 H11 H12 H13 H14 H15 H16 ")
**.H5.tcpApp[0].connectAddress=choose(int(intuniform(0,14)),"H1 H2 H3 H4 H6 H7 H8 H9 H10 H11 H12 H13 H14 H15 H16 ")
**.H6.tcpApp[0].connectAddress=choose(int(intuniform(0,14)),"H1 H2 H3 H4 H5 H7 H8 H9 H10 H11 H12 H13 H14 H15 H16 ")
**.H7.tcpApp[0].connectAddress=choose(int(intuniform(0,14)),"H1 H2 H3 H4 H5 H6 H8 H9 H10 H11 H12 H13 H14 H15 H16 ")
**.H8.tcpApp[0].connectAddress=choose(int(intuniform(0,14)),"H1 H2 H3 H4 H5 H6 H7 H9 H10 H11 H12 H13 H14 H15 H16 ")
**.H9.tcpApp[0].connectAddress=choose(int(intuniform(0,14)),"H1 H2 H3 H4 H5 H6 H7 H8 H10 H11 H12 H13 H14 H15 H16 ")
**.H10.tcpApp[0].connectAddress=choose(int(intuniform(0,14)),"H1 H2 H3 H4 H5 H6 H7 H8 H9 H11 H12 H13 H14 H15 H16 ")
**.H11.tcpApp[0].connectAddress=choose(int(intuniform(0,14)),"H1 H2 H3 H4 H5 H6 H7 H8 H9 H10 H12 H13 H14 H15 H16 ")
**.H12.tcpApp[0].connectAddress=choose(int(intuniform(0,14)),"H1 H2 H3 H4 H5 H6 H7 H8 H9 H10 H11 H13 H14 H15 H16 ")
**.H13.tcpApp[0].connectAddress=choose(int(intuniform(0,14)),"H1 H2 H3 H4 H5 H6 H7 H8 H9 H10 H11 H12 H14 H15 H16 ")
**.H14.tcpApp[0].connectAddress=choose(int(intuniform(0,14)),"H1 H2 H3 H4 H5 H6 H7 H8 H9 H10 H11 H12 H13 H15 H16 ")
**.H15.tcpApp[0].connectAddress=choose(int(intuniform(0,14)),"H1 H2 H3 H4 H5 H6 H7 H8 H9 H10 H11 H12 H13 H14 H16 ")
**.H16.tcpApp[0].connectAddress=choose(int(intuniform(0,14)),"H1 H2 H3 H4 H5 H6 H7 H8 H9 H10 H11 H12 H13 H14 H15 ")
description = "Forwarding with EX Routing"
#**.open_Flow_Processing.**.vector-recording = true
**controller.behavior = "BEERs"
**controller.ctrlApp.isWeightedNode=false
**controller.ctrlApp.max_multi_path_num = 2
**.H*.tcpApp[0].flowScheduleType=1
**controller.ctrlApp.linkcapacity=1000#Mbps
[Config BEERs-aggr10-27]
#30GB，2000s, random flow，(180MB, 18s== 80Mbps/flow), arrival time=3s
**.H*.tcpApp[0].tSend=48s/poisson(16)
**.H*.tcpApp[0].sendBytes = exponential(40MiB)
**.H*.tcpApp[0].tDeadline = 2s#800Mbps
**.H*.tcpApp[0].flowNum = 20000
**.H*.tcpApp[0].sendByteSum= 3000MB#30GB
**.H*.tcpApp[0].tClose=2000s
**.H*.tcpApp[0].sleepRatio=0.02
**.H1.tcpApp[0].connectAddress=choose(int(intuniform(0,14)),"H2 H3 H4 H5 H6 H7 H8 H9 H10 H11 H12 H13 H14 H15 H16 ")
**.H2.tcpApp[0].connectAddress=choose(int(intuniform(0,14)),"H1 H3 H4 H5 H6 H7 H8 H9 H10 H11 H12 H13 H14 H15 H16 ")
**.H3.tcpApp[0].connectAddress=choose(int(intuniform(0,14)),"H1 H2 H4 H5 H6 H7 H8 H9 H10 H11 H12 H13 H14 H15 H16 ")
**.H4.tcpApp[0].connectAddress=choose(int(intuniform(0,14)),"H1 H2 H3 H5 H6 H7 H8 H9 H10 H11 H12 H13 H14 H15 H16 ")
**.H5.tcpApp[0].connectAddress=choose(int(intuniform(0,14)),"H1 H2 H3 H4 H6 H7 H8 H9 H10 H11 H12 H13 H14 H15 H16 ")
**.H6.tcpApp[0].connectAddress=choose(int(intuniform(0,14)),"H1 H2 H3 H4 H5 H7 H8 H9 H10 H11 H12 H13 H14 H15 H16 ")
**.H7.tcpApp[0].connectAddress=choose(int(intuniform(0,14)),"H1 H2 H3 H4 H5 H6 H8 H9 H10 H11 H12 H13 H14 H15 H16 ")
**.H8.tcpApp[0].connectAddress=choose(int(intuniform(0,14)),"H1 H2 H3 H4 H5 H6 H7 H9 H10 H11 H12 H13 H14 H15 H16 ")
**.H9.tcpApp[0].connectAddress=choose(int(intuniform(0,14)),"H1 H2 H3 H4 H5 H6 H7 H8 H10 H11 H12 H13 H14 H15 H16 ")
**.H10.tcpApp[0].connectAddress=choose(int(intuniform(0,14)),"H1 H2 H3 H4 H5 H6 H7 H8 H9 H11 H12 H13 H14 H15 H16 ")
**.H11.tcpApp[0].connectAddress=choose(int(intuniform(0,14)),"H1 H2 H3 H4 H5 H6 H7 H8 H9 H10 H12 H13 H14 H15 H16 ")
**.H12.tcpApp[0].connectAddress=choose(int(intuniform(0,14)),"H1 H2 H3 H4 H5 H6 H7 H8 H9 H10 H11 H13 H14 H15 H16 ")
**.H13.tcpApp[0].connectAddress=choose(int(intuniform(0,14)),"H1 H2 H3 H4 H5 H6 H7 H8 H9 H10 H11 H12 H14 H15 H16 ")
**.H14.tcpApp[0].connectAddress=choose(int(intuniform(0,14)),"H1 H2 H3 H4 H5 H6 H7 H8 H9 H10 H11 H12 H13 H15 H16 ")
**.H15.tcpApp[0].connectAddress=choose(int(intuniform(0,14)),"H1 H2 H3 H4 H5 H6 H7 H8 H9 H10 H11 H12 H13 H14 H16 ")
**.H16.tcpApp[0].connectAddress=choose(int(intuniform(0,14)),"H1 H2 H3 H4 H5 H6 H7 H8 H9 H10 H11 H12 H13 H14 H15 ")
description = "Forwarding with EX Routing"
#**.open_Flow_Processing.**.vector-recording = true
**controller.behavior = "BEERs"
**controller.ctrlApp.isWeightedNode=false
**controller.ctrlApp.max_multi_path_num = 2
**.H*.tcpApp[0].flowScheduleType=1
**controller.ctrlApp.linkcapacity=1000#Mbps
[Config BEERs-aggr10-26]
#30GB，2000s, random flow，(180MB, 18s== 80Mbps/flow), arrival time=3s
**.H*.tcpApp[0].tSend=48s/poisson(16)
**.H*.tcpApp[0].sendBytes = exponential(30MiB)
**.H*.tcpApp[0].tDeadline = 1s#800Mbps
**.H*.tcpApp[0].flowNum = 20000
**.H*.tcpApp[0].sendByteSum= 3000MB#30GB
**.H*.tcpApp[0].tClose=2000s
**.H*.tcpApp[0].sleepRatio=0.02
**.H1.tcpApp[0].connectAddress=choose(int(intuniform(0,14)),"H2 H3 H4 H5 H6 H7 H8 H9 H10 H11 H12 H13 H14 H15 H16 ")
**.H2.tcpApp[0].connectAddress=choose(int(intuniform(0,14)),"H1 H3 H4 H5 H6 H7 H8 H9 H10 H11 H12 H13 H14 H15 H16 ")
**.H3.tcpApp[0].connectAddress=choose(int(intuniform(0,14)),"H1 H2 H4 H5 H6 H7 H8 H9 H10 H11 H12 H13 H14 H15 H16 ")
**.H4.tcpApp[0].connectAddress=choose(int(intuniform(0,14)),"H1 H2 H3 H5 H6 H7 H8 H9 H10 H11 H12 H13 H14 H15 H16 ")
**.H5.tcpApp[0].connectAddress=choose(int(intuniform(0,14)),"H1 H2 H3 H4 H6 H7 H8 H9 H10 H11 H12 H13 H14 H15 H16 ")
**.H6.tcpApp[0].connectAddress=choose(int(intuniform(0,14)),"H1 H2 H3 H4 H5 H7 H8 H9 H10 H11 H12 H13 H14 H15 H16 ")
**.H7.tcpApp[0].connectAddress=choose(int(intuniform(0,14)),"H1 H2 H3 H4 H5 H6 H8 H9 H10 H11 H12 H13 H14 H15 H16 ")
**.H8.tcpApp[0].connectAddress=choose(int(intuniform(0,14)),"H1 H2 H3 H4 H5 H6 H7 H9 H10 H11 H12 H13 H14 H15 H16 ")
**.H9.tcpApp[0].connectAddress=choose(int(intuniform(0,14)),"H1 H2 H3 H4 H5 H6 H7 H8 H10 H11 H12 H13 H14 H15 H16 ")
**.H10.tcpApp[0].connectAddress=choose(int(intuniform(0,14)),"H1 H2 H3 H4 H5 H6 H7 H8 H9 H11 H12 H13 H14 H15 H16 ")
**.H11.tcpApp[0].connectAddress=choose(int(intuniform(0,14)),"H1 H2 H3 H4 H5 H6 H7 H8 H9 H10 H12 H13 H14 H15 H16 ")
**.H12.tcpApp[0].connectAddress=choose(int(intuniform(0,14)),"H1 H2 H3 H4 H5 H6 H7 H8 H9 H10 H11 H13 H14 H15 H16 ")
**.H13.tcpApp[0].connectAddress=choose(int(intuniform(0,14)),"H1 H2 H3 H4 H5 H6 H7 H8 H9 H10 H11 H12 H14 H15 H16 ")
**.H14.tcpApp[0].connectAddress=choose(int(intuniform(0,14)),"H1 H2 H3 H4 H5 H6 H7 H8 H9 H10 H11 H12 H13 H15 H16 ")
**.H15.tcpApp[0].connectAddress=choose(int(intuniform(0,14)),"H1 H2 H3 H4 H5 H6 H7 H8 H9 H10 H11 H12 H13 H14 H16 ")
**.H16.tcpApp[0].connectAddress=choose(int(intuniform(0,14)),"H1 H2 H3 H4 H5 H6 H7 H8 H9 H10 H11 H12 H13 H14 H15 ")
description = "Forwarding with EX Routing"
#**.open_Flow_Processing.**.vector-recording = true
**controller.behavior = "BEERs"
**controller.ctrlApp.isWeightedNode=false
**controller.ctrlApp.max_multi_path_num = 2
**.H*.tcpApp[0].flowScheduleType=1
**controller.ctrlApp.linkcapacity=1000#Mbps
[Config BEERs-aggr10-25]
#30GB，2000s, random flow，(180MB, 18s== 80Mbps/flow), arrival time=3s
**.H*.tcpApp[0].tSend=48s/poisson(16)
**.H*.tcpApp[0].sendBytes = exponential(60MiB)
**.H*.tcpApp[0].tDeadline = 1s#800Mbps
**.H*.tcpApp[0].flowNum = 20000
**.H*.tcpApp[0].sendByteSum= 3000MB#30GB
**.H*.tcpApp[0].tClose=2000s
**.H*.tcpApp[0].sleepRatio=0.02
**.H1.tcpApp[0].connectAddress=choose(int(intuniform(0,14)),"H2 H3 H4 H5 H6 H7 H8 H9 H10 H11 H12 H13 H14 H15 H16 ")
**.H2.tcpApp[0].connectAddress=choose(int(intuniform(0,14)),"H1 H3 H4 H5 H6 H7 H8 H9 H10 H11 H12 H13 H14 H15 H16 ")
**.H3.tcpApp[0].connectAddress=choose(int(intuniform(0,14)),"H1 H2 H4 H5 H6 H7 H8 H9 H10 H11 H12 H13 H14 H15 H16 ")
**.H4.tcpApp[0].connectAddress=choose(int(intuniform(0,14)),"H1 H2 H3 H5 H6 H7 H8 H9 H10 H11 H12 H13 H14 H15 H16 ")
**.H5.tcpApp[0].connectAddress=choose(int(intuniform(0,14)),"H1 H2 H3 H4 H6 H7 H8 H9 H10 H11 H12 H13 H14 H15 H16 ")
**.H6.tcpApp[0].connectAddress=choose(int(intuniform(0,14)),"H1 H2 H3 H4 H5 H7 H8 H9 H10 H11 H12 H13 H14 H15 H16 ")
**.H7.tcpApp[0].connectAddress=choose(int(intuniform(0,14)),"H1 H2 H3 H4 H5 H6 H8 H9 H10 H11 H12 H13 H14 H15 H16 ")
**.H8.tcpApp[0].connectAddress=choose(int(intuniform(0,14)),"H1 H2 H3 H4 H5 H6 H7 H9 H10 H11 H12 H13 H14 H15 H16 ")
**.H9.tcpApp[0].connectAddress=choose(int(intuniform(0,14)),"H1 H2 H3 H4 H5 H6 H7 H8 H10 H11 H12 H13 H14 H15 H16 ")
**.H10.tcpApp[0].connectAddress=choose(int(intuniform(0,14)),"H1 H2 H3 H4 H5 H6 H7 H8 H9 H11 H12 H13 H14 H15 H16 ")
**.H11.tcpApp[0].connectAddress=choose(int(intuniform(0,14)),"H1 H2 H3 H4 H5 H6 H7 H8 H9 H10 H12 H13 H14 H15 H16 ")
**.H12.tcpApp[0].connectAddress=choose(int(intuniform(0,14)),"H1 H2 H3 H4 H5 H6 H7 H8 H9 H10 H11 H13 H14 H15 H16 ")
**.H13.tcpApp[0].connectAddress=choose(int(intuniform(0,14)),"H1 H2 H3 H4 H5 H6 H7 H8 H9 H10 H11 H12 H14 H15 H16 ")
**.H14.tcpApp[0].connectAddress=choose(int(intuniform(0,14)),"H1 H2 H3 H4 H5 H6 H7 H8 H9 H10 H11 H12 H13 H15 H16 ")
**.H15.tcpApp[0].connectAddress=choose(int(intuniform(0,14)),"H1 H2 H3 H4 H5 H6 H7 H8 H9 H10 H11 H12 H13 H14 H16 ")
**.H16.tcpApp[0].connectAddress=choose(int(intuniform(0,14)),"H1 H2 H3 H4 H5 H6 H7 H8 H9 H10 H11 H12 H13 H14 H15 ")
description = "Forwarding with EX Routing"
#**.open_Flow_Processing.**.vector-recording = true
**controller.behavior = "BEERs"
**controller.ctrlApp.isWeightedNode=false
**controller.ctrlApp.max_multi_path_num = 2
**.H*.tcpApp[0].flowScheduleType=1
**controller.ctrlApp.linkcapacity=1000#Mbps

[Config BEERs-aggr10-24]
#30GB，2000s, random flow，(180MB, 18s== 80Mbps/flow), arrival time=3s
**.H*.tcpApp[0].tSend=48s/poisson(16)
**.H*.tcpApp[0].sendBytes = exponential(90MiB)
**.H*.tcpApp[0].tDeadline = 1s#800Mbps
**.H*.tcpApp[0].flowNum = 20000
**.H*.tcpApp[0].sendByteSum= 3000MB#30GB
**.H*.tcpApp[0].tClose=2000s
**.H*.tcpApp[0].sleepRatio=0.02
**.H1.tcpApp[0].connectAddress=choose(int(intuniform(0,14)),"H2 H3 H4 H5 H6 H7 H8 H9 H10 H11 H12 H13 H14 H15 H16 ")
**.H2.tcpApp[0].connectAddress=choose(int(intuniform(0,14)),"H1 H3 H4 H5 H6 H7 H8 H9 H10 H11 H12 H13 H14 H15 H16 ")
**.H3.tcpApp[0].connectAddress=choose(int(intuniform(0,14)),"H1 H2 H4 H5 H6 H7 H8 H9 H10 H11 H12 H13 H14 H15 H16 ")
**.H4.tcpApp[0].connectAddress=choose(int(intuniform(0,14)),"H1 H2 H3 H5 H6 H7 H8 H9 H10 H11 H12 H13 H14 H15 H16 ")
**.H5.tcpApp[0].connectAddress=choose(int(intuniform(0,14)),"H1 H2 H3 H4 H6 H7 H8 H9 H10 H11 H12 H13 H14 H15 H16 ")
**.H6.tcpApp[0].connectAddress=choose(int(intuniform(0,14)),"H1 H2 H3 H4 H5 H7 H8 H9 H10 H11 H12 H13 H14 H15 H16 ")
**.H7.tcpApp[0].connectAddress=choose(int(intuniform(0,14)),"H1 H2 H3 H4 H5 H6 H8 H9 H10 H11 H12 H13 H14 H15 H16 ")
**.H8.tcpApp[0].connectAddress=choose(int(intuniform(0,14)),"H1 H2 H3 H4 H5 H6 H7 H9 H10 H11 H12 H13 H14 H15 H16 ")
**.H9.tcpApp[0].connectAddress=choose(int(intuniform(0,14)),"H1 H2 H3 H4 H5 H6 H7 H8 H10 H11 H12 H13 H14 H15 H16 ")
**.H10.tcpApp[0].connectAddress=choose(int(intuniform(0,14)),"H1 H2 H3 H4 H5 H6 H7 H8 H9 H11 H12 H13 H14 H15 H16 ")
**.H11.tcpApp[0].connectAddress=choose(int(intuniform(0,14)),"H1 H2 H3 H4 H5 H6 H7 H8 H9 H10 H12 H13 H14 H15 H16 ")
**.H12.tcpApp[0].connectAddress=choose(int(intuniform(0,14)),"H1 H2 H3 H4 H5 H6 H7 H8 H9 H10 H11 H13 H14 H15 H16 ")
**.H13.tcpApp[0].connectAddress=choose(int(intuniform(0,14)),"H1 H2 H3 H4 H5 H6 H7 H8 H9 H10 H11 H12 H14 H15 H16 ")
**.H14.tcpApp[0].connectAddress=choose(int(intuniform(0,14)),"H1 H2 H3 H4 H5 H6 H7 H8 H9 H10 H11 H12 H13 H15 H16 ")
**.H15.tcpApp[0].connectAddress=choose(int(intuniform(0,14)),"H1 H2 H3 H4 H5 H6 H7 H8 H9 H10 H11 H12 H13 H14 H16 ")
**.H16.tcpApp[0].connectAddress=choose(int(intuniform(0,14)),"H1 H2 H3 H4 H5 H6 H7 H8 H9 H10 H11 H12 H13 H14 H15 ")
description = "Forwarding with EX Routing"
#**.open_Flow_Processing.**.vector-recording = true
**controller.behavior = "BEERs"
**controller.ctrlApp.isWeightedNode=false
**controller.ctrlApp.max_multi_path_num = 2
**.H*.tcpApp[0].flowScheduleType=1
**controller.ctrlApp.linkcapacity=1000#Mbps

[Config BEERs-aggr10-23]
#30GB，2000s, random flow，(180MB, 18s== 80Mbps/flow), arrival time=3s
**.H*.tcpApp[0].tSend=48s/poisson(16)
**.H*.tcpApp[0].sendBytes = exponential(90MiB)
**.H*.tcpApp[0].tDeadline = 3s#800Mbps
**.H*.tcpApp[0].flowNum = 20000
**.H*.tcpApp[0].sendByteSum= 3000MB#30GB
**.H*.tcpApp[0].tClose=2000s
**.H*.tcpApp[0].sleepRatio=0.02
**.H1.tcpApp[0].connectAddress=choose(int(intuniform(0,14)),"H2 H3 H4 H5 H6 H7 H8 H9 H10 H11 H12 H13 H14 H15 H16 ")
**.H2.tcpApp[0].connectAddress=choose(int(intuniform(0,14)),"H1 H3 H4 H5 H6 H7 H8 H9 H10 H11 H12 H13 H14 H15 H16 ")
**.H3.tcpApp[0].connectAddress=choose(int(intuniform(0,14)),"H1 H2 H4 H5 H6 H7 H8 H9 H10 H11 H12 H13 H14 H15 H16 ")
**.H4.tcpApp[0].connectAddress=choose(int(intuniform(0,14)),"H1 H2 H3 H5 H6 H7 H8 H9 H10 H11 H12 H13 H14 H15 H16 ")
**.H5.tcpApp[0].connectAddress=choose(int(intuniform(0,14)),"H1 H2 H3 H4 H6 H7 H8 H9 H10 H11 H12 H13 H14 H15 H16 ")
**.H6.tcpApp[0].connectAddress=choose(int(intuniform(0,14)),"H1 H2 H3 H4 H5 H7 H8 H9 H10 H11 H12 H13 H14 H15 H16 ")
**.H7.tcpApp[0].connectAddress=choose(int(intuniform(0,14)),"H1 H2 H3 H4 H5 H6 H8 H9 H10 H11 H12 H13 H14 H15 H16 ")
**.H8.tcpApp[0].connectAddress=choose(int(intuniform(0,14)),"H1 H2 H3 H4 H5 H6 H7 H9 H10 H11 H12 H13 H14 H15 H16 ")
**.H9.tcpApp[0].connectAddress=choose(int(intuniform(0,14)),"H1 H2 H3 H4 H5 H6 H7 H8 H10 H11 H12 H13 H14 H15 H16 ")
**.H10.tcpApp[0].connectAddress=choose(int(intuniform(0,14)),"H1 H2 H3 H4 H5 H6 H7 H8 H9 H11 H12 H13 H14 H15 H16 ")
**.H11.tcpApp[0].connectAddress=choose(int(intuniform(0,14)),"H1 H2 H3 H4 H5 H6 H7 H8 H9 H10 H12 H13 H14 H15 H16 ")
**.H12.tcpApp[0].connectAddress=choose(int(intuniform(0,14)),"H1 H2 H3 H4 H5 H6 H7 H8 H9 H10 H11 H13 H14 H15 H16 ")
**.H13.tcpApp[0].connectAddress=choose(int(intuniform(0,14)),"H1 H2 H3 H4 H5 H6 H7 H8 H9 H10 H11 H12 H14 H15 H16 ")
**.H14.tcpApp[0].connectAddress=choose(int(intuniform(0,14)),"H1 H2 H3 H4 H5 H6 H7 H8 H9 H10 H11 H12 H13 H15 H16 ")
**.H15.tcpApp[0].connectAddress=choose(int(intuniform(0,14)),"H1 H2 H3 H4 H5 H6 H7 H8 H9 H10 H11 H12 H13 H14 H16 ")
**.H16.tcpApp[0].connectAddress=choose(int(intuniform(0,14)),"H1 H2 H3 H4 H5 H6 H7 H8 H9 H10 H11 H12 H13 H14 H15 ")
description = "Forwarding with EX Routing"
#**.open_Flow_Processing.**.vector-recording = true
**controller.behavior = "BEERs"
**controller.ctrlApp.isWeightedNode=false
**controller.ctrlApp.max_multi_path_num = 2
**.H*.tcpApp[0].flowScheduleType=1
**controller.ctrlApp.linkcapacity=1000#Mbps

[Config BEERs-aggr10-22]
#30GB，2000s, random flow，(180MB, 18s== 80Mbps/flow), arrival time=3s
**.H*.tcpApp[0].tSend=48s/poisson(16)
**.H*.tcpApp[0].sendBytes = exponential(90MiB)
**.H*.tcpApp[0].tDeadline = 1.5s#800Mbps
**.H*.tcpApp[0].flowNum = 20000
**.H*.tcpApp[0].sendByteSum= 3000MB#30GB
**.H*.tcpApp[0].tClose=2000s
**.H*.tcpApp[0].sleepRatio=0.02
**.H1.tcpApp[0].connectAddress=choose(int(intuniform(0,14)),"H2 H3 H4 H5 H6 H7 H8 H9 H10 H11 H12 H13 H14 H15 H16 ")
**.H2.tcpApp[0].connectAddress=choose(int(intuniform(0,14)),"H1 H3 H4 H5 H6 H7 H8 H9 H10 H11 H12 H13 H14 H15 H16 ")
**.H3.tcpApp[0].connectAddress=choose(int(intuniform(0,14)),"H1 H2 H4 H5 H6 H7 H8 H9 H10 H11 H12 H13 H14 H15 H16 ")
**.H4.tcpApp[0].connectAddress=choose(int(intuniform(0,14)),"H1 H2 H3 H5 H6 H7 H8 H9 H10 H11 H12 H13 H14 H15 H16 ")
**.H5.tcpApp[0].connectAddress=choose(int(intuniform(0,14)),"H1 H2 H3 H4 H6 H7 H8 H9 H10 H11 H12 H13 H14 H15 H16 ")
**.H6.tcpApp[0].connectAddress=choose(int(intuniform(0,14)),"H1 H2 H3 H4 H5 H7 H8 H9 H10 H11 H12 H13 H14 H15 H16 ")
**.H7.tcpApp[0].connectAddress=choose(int(intuniform(0,14)),"H1 H2 H3 H4 H5 H6 H8 H9 H10 H11 H12 H13 H14 H15 H16 ")
**.H8.tcpApp[0].connectAddress=choose(int(intuniform(0,14)),"H1 H2 H3 H4 H5 H6 H7 H9 H10 H11 H12 H13 H14 H15 H16 ")
**.H9.tcpApp[0].connectAddress=choose(int(intuniform(0,14)),"H1 H2 H3 H4 H5 H6 H7 H8 H10 H11 H12 H13 H14 H15 H16 ")
**.H10.tcpApp[0].connectAddress=choose(int(intuniform(0,14)),"H1 H2 H3 H4 H5 H6 H7 H8 H9 H11 H12 H13 H14 H15 H16 ")
**.H11.tcpApp[0].connectAddress=choose(int(intuniform(0,14)),"H1 H2 H3 H4 H5 H6 H7 H8 H9 H10 H12 H13 H14 H15 H16 ")
**.H12.tcpApp[0].connectAddress=choose(int(intuniform(0,14)),"H1 H2 H3 H4 H5 H6 H7 H8 H9 H10 H11 H13 H14 H15 H16 ")
**.H13.tcpApp[0].connectAddress=choose(int(intuniform(0,14)),"H1 H2 H3 H4 H5 H6 H7 H8 H9 H10 H11 H12 H14 H15 H16 ")
**.H14.tcpApp[0].connectAddress=choose(int(intuniform(0,14)),"H1 H2 H3 H4 H5 H6 H7 H8 H9 H10 H11 H12 H13 H15 H16 ")
**.H15.tcpApp[0].connectAddress=choose(int(intuniform(0,14)),"H1 H2 H3 H4 H5 H6 H7 H8 H9 H10 H11 H12 H13 H14 H16 ")
**.H16.tcpApp[0].connectAddress=choose(int(intuniform(0,14)),"H1 H2 H3 H4 H5 H6 H7 H8 H9 H10 H11 H12 H13 H14 H15 ")
description = "Forwarding with EX Routing"