[General]
network =DCN_FatTree4G
#network = Scenario_Small

#-6.4MB-48W2WRandomSend
debug-statistics-recording = false
output-scalar-file = ${resultdir}/${inifile}/${configname}-${runnumber}.sca
debug-on-errors = false

#ARP should be allocated by controller, otherwise the arp broadcast would ruin the simulation.
output-vector-file = ${resultdir}/${inifile}/${configname}-${runnumber}.vec
sim-time-limit = 110s
simtime-scale = -12

#ARP should be allocated by controller, otherwise the arp broadcast would ruin the simulation.
**.controller.ctrlApp.isArpOracle = true
#**controller.behavior = "ForwardingEXR"
**.controller.ofa_controller.port=6633
#**.ovs*.open_Flow_Processing.active2sleepTime = 0.0002s
**.ovs*.open_Flow_Processing.active2sleepTime = 2s
**.ovs*.open_Flow_Processing.active2sleepTimePort=0.001s 
**.ovs*.open_Flow_Processing.portpower=1w
**.ovs*.open_Flow_Processing.switchpower=36w
**.ovs*.open_Flow_Processing.linkCapacity = 1000 #Mbps
**.ovs*.open_Flow_Processing.portNum = 4
#8-port switch: 2(in/out)*8*1G/(1500*8)=10^7/7.5 packets/s.
**.ovs*.serviceTime=0.00000075s #change from 0.0000015
**.ovs*.sendCompletePacket = true
**.ofa_switch.connectPort = 6633
**.ofa_switch.connectAddress = "controller"
**.buffer.capacity = 1000000 # change from 10
**.ofa_switch.flow_timeout = 200s
**.ovs*.etherMAC[*].promiscuous = true
#**.controller.ofa_controller.address = 

# NIC configuration
**.ppp[*].queueType = "DropTailQueue" # in routers
**.ppp[*].queue.frameCapacity = 1000  # in routers

#*.configurator.networkAddress = "10.0.0.0"
*.configurator.networkAddress = "192.168.1.0"

**.mss = 536
**.advertisedWindow=21440 #default is 14*mss
**.recordStats=true

#tcp
**.H*.numTcpApps = 11
**.H*.tcpApp[10].typename ="TCPSinkOFbased"
**.H*.tcpApp[10].localPort=1000
**.H*.tcpApp[10].sampleTime=0.3s
**.H*.tcpApp[10].receiveBytes=128MiB #should equal to the send bytes.
**.H*.tcpApp[10].echoDelay=0s

**.H*.tcpApp[*].typename = "TCPAppOFbased"
**.H*.tcpApp[*].active = true
#**.H*.tcpApp[*].localPort=-1
**.H*.tcpApp[*].connectPort=1000
**.H*.tcpApp[*].tOpen=0s
**.H*.tcpApp[*].tSend=0.01s /poisson(160)
**.H*.tcpApp[*].sendBytes=128MiB #exponential(6400000B) # the file size.
**.H*.tcpApp[*].tDeadline = 12s#800Mbps
**.H*.tcpApp[*].tClose=200s

**.tcpApp[*]**.vector-recording = true
**.open_Flow_Processing**.vector-recording=true
**.vector-recording=false

**.ovs*.open_Flow_Processing.powerSampleTime=0.3s

**.H*.tcpApp[0].localPort=1001
**.H*.tcpApp[1].localPort=1002
**.H*.tcpApp[2].localPort=1003
**.H*.tcpApp[3].localPort=1004
**.H*.tcpApp[4].localPort=1005
**.H*.tcpApp[5].localPort=1006
**.H*.tcpApp[6].localPort=1007
**.H*.tcpApp[7].localPort=1008
**.H*.tcpApp[8].localPort=1009
**.H*.tcpApp[9].localPort=1010
DCN_FatTree4G.H1.tcpApp[0].connectAddress=choose(int(intuniform(0,59)),"H2 H2 H2 H2 H2 H2 H2 H2 H2 H2 H2 H2 H2 H2 H2 H2 H2 H2 H2 H2 H2 H2 H2 H2 H2 H2 H2 H2 H2 H2 H3 H4 H3 H4 H3 H4 H3 H4 H3 H4 H3 H4 H3 H4 H3 H4 H3 H4 H5 H6 H7 H8 H9 H10 H11 H12 H13 H14 H15 H16 ")
DCN_FatTree4G.H2.tcpApp[0].connectAddress=choose(int(intuniform(0,59)),"H1 H1 H1 H1 H1 H1 H1 H1 H1 H1 H1 H1 H1 H1 H1 H1 H1 H1 H1 H1 H1 H1 H1 H1 H1 H1 H1 H1 H1 H1 H3 H4 H3 H4 H3 H4 H3 H4 H3 H4 H3 H4 H3 H4 H3 H4 H3 H4 H5 H6 H7 H8 H9 H10 H11 H12 H13 H14 H15 H16 ")
DCN_FatTree4G.H3.tcpApp[0].connectAddress=choose(int(intuniform(0,59)),"H4 H4 H4 H4 H4 H4 H4 H4 H4 H4 H4 H4 H4 H4 H4 H4 H4 H4 H4 H4 H4 H4 H4 H4 H4 H4 H4 H4 H4 H4 H1 H2 H1 H2 H1 H2 H1 H2 H1 H2 H1 H2 H1 H2 H1 H2 H1 H2 H5 H6 H7 H8 H9 H10 H11 H12 H13 H14 H15 H16 ")
DCN_FatTree4G.H4.tcpApp[0].connectAddress=choose(int(intuniform(0,59)),"H3 H3 H3 H3 H3 H3 H3 H3 H3 H3 H3 H3 H3 H3 H3 H3 H3 H3 H3 H3 H3 H3 H3 H3 H3 H3 H3 H3 H3 H3 H1 H2 H1 H2 H1 H2 H1 H2 H1 H2 H1 H2 H1 H2 H1 H2 H1 H2 H5 H6 H7 H8 H9 H10 H11 H12 H13 H14 H15 H16 ")
DCN_FatTree4G.H1.tcpApp[1].connectAddress=choose(int(intuniform(0,59)),"H2 H2 H2 H2 H2 H2 H2 H2 H2 H2 H2 H2 H2 H2 H2 H2 H2 H2 H2 H2 H2 H2 H2 H2 H2 H2 H2 H2 H2 H2 H3 H4 H3 H4 H3 H4 H3 H4 H3 H4 H3 H4 H3 H4 H3 H4 H3 H4 H5 H6 H7 H8 H9 H10 H11 H12 H13 H14 H15 H16 ")
DCN_FatTree4G.H2.tcpApp[1].connectAddress=choose(int(intuniform(0,59)),"H1 H1 H1 H1 H1 H1 H1 H1 H1 H1 H1 H1 H1 H1 H1 H1 H1 H1 H1 H1 H1 H1 H1 H1 H1 H1 H1 H1 H1 H1 H3 H4 H3 H4 H3 H4 H3 H4 H3 H4 H3 H4 H3 H4 H3 H4 H3 H4 H5 H6 H7 H8 H9 H10 H11 H12 H13 H14 H15 H16 ")
DCN_FatTree4G.H3.tcpApp[1].connectAddress=choose(int(intuniform(0,59)),"H4 H4 H4 H4 H4 H4 H4 H4 H4 H4 H4 H4 H4 H4 H4 H4 H4 H4 H4 H4 H4 H4 H4 H4 H4 H4 H4 H4 H4 H4 H1 H2 H1 H2 H1 H2 H1 H2 H1 H2 H1 H2 H1 H2 H1 H2 H1 H2 H5 H6 H7 H8 H9 H10 H11 H12 H13 H14 H15 H16 ")
DCN_FatTree4G.H4.tcpApp[1].connectAddress=choose(int(intuniform(0,59)),"H3 H3 H3 H3 H3 H3 H3 H3 H3 H3 H3 H3 H3 H3 H3 H3 H3 H3 H3 H3 H3 H3 H3 H3 H3 H3 H3 H3 H3 H3 H1 H2 H1 H2 H1 H2 H1 H2 H1 H2 H1 H2 H1 H2 H1 H2 H1 H2 H5 H6 H7 H8 H9 H10 H11 H12 H13 H14 H15 H16 ")
DCN_FatTree4G.H1.tcpApp[2].connectAddress=choose(int(intuniform(0,59)),"H2 H2 H2 H2 H2 H2 H2 H2 H2 H2 H2 H2 H2 H2 H2 H2 H2 H2 H2 H2 H2 H2 H2 H2 H2 H2 H2 H2 H2 H2 H3 H4 H3 H4 H3 H4 H3 H4 H3 H4 H3 H4 H3 H4 H3 H4 H3 H4 H5 H6 H7 H8 H9 H10 H11 H12 H13 H14 H15 H16 ")
DCN_FatTree4G.H2.tcpApp[2].connectAddress=choose(int(intuniform(0,59)),"H1 H1 H1 H1 H1 H1 H1 H1 H1 H1 H1 H1 H1 H1 H1 H1 H1 H1 H1 H1 H1 H1 H1 H1 H1 H1 H1 H1 H1 H1 H3 H4 H3 H4 H3 H4 H3 H4 H3 H4 H3 H4 H3 H4 H3 H4 H3 H4 H5 H6 H7 H8 H9 H10 H11 H12 H13 H14 H15 H16 ")
DCN_FatTree4G.H3.tcpApp[2].connectAddress=choose(int(intuniform(0,59)),"H4 H4 H4 H4 H4 H4 H4 H4 H4 H4 H4 H4 H4 H4 H4 H4 H4 H4 H4 H4 H4 H4 H4 H4 H4 H4 H4 H4 H4 H4 H1 H2 H1 H2 H1 H2 H1 H2 H1 H2 H1 H2 H1 H2 H1 H2 H1 H2 H5 H6 H7 H8 H9 H10 H11 H12 H13 H14 H15 H16 ")
DCN_FatTree4G.H4.tcpApp[2].connectAddress=choose(int(intuniform(0,59)),"H3 H3 H3 H3 H3 H3 H3 H3 H3 H3 H3 H3 H3 H3 H3 H3 H3 H3 H3 H3 H3 H3 H3 H3 H3 H3 H3 H3 H3 H3 H1 H2 H1 H2 H1 H2 H1 H2 H1 H2 H1 H2 H1 H2 H1 H2 H1 H2 H5 H6 H7 H8 H9 H10 H11 H12 H13 H14 H15 H16 ")
DCN_FatTree4G.H1.tcpApp[3].connectAddress=choose(int(intuniform(0,59)),"H2 H2 H2 H2 H2 H2 H2 H2 H2 H2 H2 H2 H2 H2 H2 H2 H2 H2 H2 H2 H2 H2 H2 H2 H2 H2 H2 H2 H2 H2 H3 H4 H3 H4 H3 H4 H3 H4 H3 H4 H3 H4 H3 H4 H3 H4 H3 H4 H5 H6 H7 H8 H9 H10 H11 H12 H13 H14 H15 H16 ")
DCN_FatTree4G.H2.tcpApp[3].connectAddress=choose(int(intuniform(0,59)),"H1 H1 H1 H1 H1 H1 H1 H1 H1 H1 H1 H1 H1 H1 H1 H1 H1 H1 H1 H1 H1 H1 H1 H1 H1 H1 H1 H1 H1 H1 H3 H4 H3 H4 H3 H4 H3 H4 H3 H4 H3 H4 H3 H4 H3 H4 H3 H4 H5 H6 H7 H8 H9 H10 H11 H12 H13 H14 H15 H16 ")
DCN_FatTree4G.H3.tcpApp[3].connectAddress=choose(int(intuniform(0,59)),"H4 H4 H4 H4 H4 H4 H4 H4 H4 H4 H4 H4 H4 H4 H4 H4 H4 H4 H4 H4 H4 H4 H4 H4 H4 H4 H4 H4 H4 H4 H1 H2 H1 H2 H1 H2 H1 H2 H1 H2 H1 H2 H1 H2 H1 H2 H1 H2 H5 H6 H7 H8 H9 H10 H11 H12 H13 H14 H15 H16 ")
DCN_FatTree4G.H4.tcpApp[3].connectAddress=choose(int(intuniform(0,59)),"H3 H3 H3 H3 H3 H3 H3 H3 H3 H3 H3 H3 H3 H3 H3 H3 H3 H3 H3 H3 H3 H3 H3 H3 H3 H3 H3 H3 H3 H3 H1 H2 H1 H2 H1 H2 H1 H2 H1 H2 H1 H2 H1 H2 H1 H2 H1 H2 H5 H6 H7 H8 H9 H10 H11 H12 H13 H14 H15 H16 ")
DCN_FatTree4G.H1.tcpApp[4].connectAddress=choose(int(intuniform(0,59)),"H2 H2 H2 H2 H2 H2 H2 H2 H2 H2 H2 H2 H2 H2 H2 H2 H2 H2 H2 H2 H2 H2 H2 H2 H2 H2 H2 H2 H2 H2 H3 H4 H3 H4 H3 H4 H3 H4 H3 H4 H3 H4 H3 H4 H3 H4 H3 H4 H5 H6 H7 H8 H9 H10 H11 H12 H13 H14 H15 H16 ")
DCN_FatTree4G.H2.tcpApp[4].connectAddress=choose(int(intuniform(0,59)),"H1 H1 H1 H1 H1 H1 H1 H1 H1 H1 H1 H1 H1 H1 H1 H1 H1 H1 H1 H1 H1 H1 H1 H1 H1 H1 H1 H1 H1 H1 H3 H4 H3 H4 H3 H4 H3 H4 H3 H4 H3 H4 H3 H4 H3 H4 H3 H4 H5 H6 H7 H8 H9 H10 H11 H12 H13 H14 H15 H16 ")
DCN_FatTree4G.H3.tcpApp[4].connectAddress=choose(int(intuniform(0,59)),"H4 H4 H4 H4 H4 H4 H4 H4 H4 H4 H4 H4 H4 H4 H4 H4 H4 H4 H4 H4 H4 H4 H4 H4 H4 H4 H4 H4 H4 H4 H1 H2 H1 H2 H1 H2 H1 H2 H1 H2 H1 H2 H1 H2 H1 H2 H1 H2 H5 H6 H7 H8 H9 H10 H11 H12 H13 H14 H15 H16 ")
DCN_FatTree4G.H4.tcpApp[4].connectAddress=choose(int(intuniform(0,59)),"H3 H3 H3 H3 H3 H3 H3 H3 H3 H3 H3 H3 H3 H3 H3 H3 H3 H3 H3 H3 H3 H3 H3 H3 H3 H3 H3 H3 H3 H3 H1 H2 H1 H2 H1 H2 H1 H2 H1 H2 H1 H2 H1 H2 H1 H2 H1 H2 H5 H6 H7 H8 H9 H10 H11 H12 H13 H14 H15 H16 ")
DCN_FatTree4G.H1.tcpApp[5].connectAddress=choose(int(intuniform(0,59)),"H2 H2 H2 H2 H2 H2 H2 H2 H2 H2 H2 H2 H2 H2 H2 H2 H2 H2 H2 H2 H2 H2 H2 H2 H2 H2 H2 H2 H2 H2 H3 H4 H3 H4 H3 H4 H3 H4 H3 H4 H3 H4 H3 H4 H3 H4 H3 H4 H5 H6 H7 H8 H9 H10 H11 H12 H13 H14 H15 H16 ")
DCN_FatTree4G.H2.tcpApp[5].connectAddress=choose(int(intuniform(0,59)),"H1 H1 H1 H1 H1 H1 H1 H1 H1 H1 H1 H1 H1 H1 H1 H1 H1 H1 H1 H1 H1 H1 H1 H1 H1 H1 H1 H1 H1 H1 H3 H4 H3 H4 H3 H4 H3 H4 H3 H4 H3 H4 H3 H4 H3 H4 H3 H4 H5 H6 H7 H8 H9 H10 H11 H12 H13 H14 H15 H16 ")
DCN_FatTree4G.H3.tcpApp[5].connectAddress=choose(int(intuniform(0,59)),"H4 H4 H4 H4 H4 H4 H4 H4 H4 H4 H4 H4 H4 H4 H4 H4 H4 H4 H4 H4 H4 H4 H4 H4 H4 H4 H4 H4 H4 H4 H1 H2 H1 H2 H1 H2 H1 H2 H1 H2 H1 H2 H1 H2 H1 H2 H1 H2 H5 H6 H7 H8 H9 H10 H11 H12 H13 H14 H15 H16 ")
DCN_FatTree4G.H4.tcpApp[5].connectAddress=choose(int(intuniform(0,59)),"H3 H3 H3 H3 H3 H3 H3 H3 H3 H3 H3 H3 H3 H3 H3 H3 H3 H3 H3 H3 H3 H3 H3 H3 H3 H3 H3 H3 H3 H3 H1 H2 H1 H2 H1 H2 H1 H2 H1 H2 H1 H2 H1 H2 H1 H2 H1 H2 H5 H6 H7 H8 H9 H10 H11 H12 H13 H14 H15 H16 ")
DCN_FatTree4G.H1.tcpApp[6].connectAddress=choose(int(intuniform(0,59)),"H2 H2 H2 H2 H2 H2 H2 H2 H2 H2 H2 H2 H2 H2 H2 H2 H2 H2 H2 H2 H2 H2 H2 H2 H2 H2 H2 H2 H2 H2 H3 H4 H3 H4 H3 H4 H3 H4 H3 H4 H3 H4 H3 H4 H3 H4 H3 H4 H5 H6 H7 H8 H9 H10 H11 H12 H13 H14 H15 H16 ")
DCN_FatTree4G.H2.tcpApp[6].connectAddress=choose(int(intuniform(0,59)),"H1 H1 H1 H1 H1 H1 H1 H1 H1 H1 H1 H1 H1 H1 H1 H1 H1 H1 H1 H1 H1 H1 H1 H1 H1 H1 H1 H1 H1 H1 H3 H4 H3 H4 H3 H4 H3 H4 H3 H4 H3 H4 H3 H4 H3 H4 H3 H4 H5 H6 H7 H8 H9 H10 H11 H12 H13 H14 H15 H16 ")
DCN_FatTree4G.H3.tcpApp[6].connectAddress=choose(int(intuniform(0,59)),"H4 H4 H4 H4 H4 H4 H4 H4 H4 H4 H4 H4 H4 H4 H4 H4 H4 H4 H4 H4 H4 H4 H4 H4 H4 H4 H4 H4 H4 H4 H1 H2 H1 H2 H1 H2 H1 H2 H1 H2 H1 H2 H1 H2 H1 H2 H1 H2 H5 H6 H7 H8 H9 H10 H11 H12 H13 H14 H15 H16 ")
DCN_FatTree4G.H4.tcpApp[6].connectAddress=choose(int(intuniform(0,59)),"H3 H3 H3 H3 H3 H3 H3 H3 H3 H3 H3 H3 H3 H3 H3 H3 H3 H3 H3 H3 H3 H3 H3 H3 H3 H3 H3 H3 H3 H3 H1 H2 H1 H2 H1 H2 H1 H2 H1 H2 H1 H2 H1 H2 H1 H2 H1 H2 H5 H6 H7 H8 H9 H10 H11 H12 H13 H14 H15 H16 ")
DCN_FatTree4G.H1.tcpApp[7].connectAddress=choose(int(intuniform(0,59)),"H2 H2 H2 H2 H2 H2 H2 H2 H2 H2 H2 H2 H2 H2 H2 H2 H2 H2 H2 H2 H2 H2 H2 H2 H2 H2 H2 H2 H2 H2 H3 H4 H3 H4 H3 H4 H3 H4 H3 H4 H3 H4 H3 H4 H3 H4 H3 H4 H5 H6 H7 H8 H9 H10 H11 H12 H13 H14 H15 H16 ")
DCN_FatTree4G.H2.tcpApp[7].connectAddress=choose(int(intuniform(0,59)),"H1 H1 H1 H1 H1 H1 H1 H1 H1 H1 H1 H1 H1 H1 H1 H1 H1 H1 H1 H1 H1 H1 H1 H1 H1 H1 H1 H1 H1 H1 H3 H4 H3 H4 H3 H4 H3 H4 H3 H4 H3 H4 H3 H4 H3 H4 H3 H4 H5 H6 H7 H8 H9 H10 H11 H12 H13 H14 H15 H16 ")
DCN_FatTree4G.H3.tcpApp[7].connectAddress=choose(int(intuniform(0,59)),"H4 H4 H4 H4 H4 H4 H4 H4 H4 H4 H4 H4 H4 H4 H4 H4 H4 H4 H4 H4 H4 H4 H4 H4 H4 H4 H4 H4 H4 H4 H1 H2 H1 H2 H1 H2 H1 H2 H1 H2 H1 H2 H1 H2 H1 H2 H1 H2 H5 H6 H7 H8 H9 H10 H11 H12 H13 H14 H15 H16 ")
DCN_FatTree4G.H4.tcpApp[7].connectAddress=choose(int(intuniform(0,59)),"H3 H3 H3 H3 H3 H3 H3 H3 H3 H3 H3 H3 H3 H3 H3 H3 H3 H3 H3 H3 H3 H3 H3 H3 H3 H3 H3 H3 H3 H3 H1 H2 H1 H2 H1 H2 H1 H2 H1 H2 H1 H2 H1 H2 H1 H2 H1 H2 H5 H6 H7 H8 H9 H10 H11 H12 H13 H14 H15 H16 ")
DCN_FatTree4G.H1.tcpApp[8].connectAddress=choose(int(intuniform(0,59)),"H2 H2 H2 H2 H2 H2 H2 H2 H2 H2 H2 H2 H2 H2 H2 H2 H2 H2 H2 H2 H2 H2 H2 H2 H2 H2 H2 H2 H2 H2 H3 H4 H3 H4 H3 H4 H3 H4 H3 H4 H3 H4 H3 H4 H3 H4 H3 H4 H5 H6 H7 H8 H9 H10 H11 H12 H13 H14 H15 H16 ")
DCN_FatTree4G.H2.tcpApp[8].connectAddress=choose(int(intuniform(0,59)),"H1 H1 H1 H1 H1 H1 H1 H1 H1 H1 H1 H1 H1 H1 H1 H1 H1 H1 H1 H1 H1 H1 H1 H1 H1 H1 H1 H1 H1 H1 H3 H4 H3 H4 H3 H4 H3 H4 H3 H4 H3 H4 H3 H4 H3 H4 H3 H4 H5 H6 H7 H8 H9 H10 H11 H12 H13 H14 H15 H16 ")
DCN_FatTree4G.H3.tcpApp[8].connectAddress=choose(int(intuniform(0,59)),"H4 H4 H4 H4 H4 H4 H4 H4 H4 H4 H4 H4 H4 H4 H4 H4 H4 H4 H4 H4 H4 H4 H4 H4 H4 H4 H4 H4 H4 H4 H1 H2 H1 H2 H1 H2 H1 H2 H1 H2 H1 H2 H1 H2 H1 H2 H1 H2 H5 H6 H7 H8 H9 H10 H11 H12 H13 H14 H15 H16 ")
DCN_FatTree4G.H4.tcpApp[8].connectAddress=choose(int(intuniform(0,59)),"H3 H3 H3 H3 H3 H3 H3 H3 H3 H3 H3 H3 H3 H3 H3 H3 H3 H3 H3 H3 H3 H3 H3 H3 H3 H3 H3 H3 H3 H3 H1 H2 H1 H2 H1 H2 H1 H2 H1 H2 H1 H2 H1 H2 H1 H2 H1 H2 H5 H6 H7 H8 H9 H10 H11 H12 H13 H14 H15 H16 ")
DCN_FatTree4G.H1.tcpApp[9].connectAddress=choose(int(intuniform(0,59)),"H2 H2 H2 H2 H2 H2 H2 H2 H2 H2 H2 H2 H2 H2 H2 H2 H2 H2 H2 H2 H2 H2 H2 H2 H2 H2 H2 H2 H2 H2 H3 H4 H3 H4 H3 H4 H3 H4 H3 H4 H3 H4 H3 H4 H3 H4 H3 H4 H5 H6 H7 H8 H9 H10 H11 H12 H13 H14 H15 H16 ")
DCN_FatTree4G.H2.tcpApp[9].connectAddress=choose(int(intuniform(0,59)),"H1 H1 H1 H1 H1 H1 H1 H1 H1 H1 H1 H1 H1 H1 H1 H1 H1 H1 H1 H1 H1 H1 H1 H1 H1 H1 H1 H1 H1 H1 H3 H4 H3 H4 H3 H4 H3 H4 H3 H4 H3 H4 H3 H4 H3 H4 H3 H4 H5 H6 H7 H8 H9 H10 H11 H12 H13 H14 H15 H16 ")
DCN_FatTree4G.H3.tcpApp[9].connectAddress=choose(int(intuniform(0,59)),"H4 H4 H4 H4 H4 H4 H4 H4 H4 H4 H4 H4 H4 H4 H4 H4 H4 H4 H4 H4 H4 H4 H4 H4 H4 H4 H4 H4 H4 H4 H1 H2 H1 H2 H1 H2 H1 H2 H1 H2 H1 H2 H1 H2 H1 H2 H1 H2 H5 H6 H7 H8 H9 H10 H11 H12 H13 H14 H15 H16 ")
DCN_FatTree4G.H4.tcpApp[9].connectAddress=choose(int(intuniform(0,59)),"H3 H3 H3 H3 H3 H3 H3 H3 H3 H3 H3 H3 H3 H3 H3 H3 H3 H3 H3 H3 H3 H3 H3 H3 H3 H3 H3 H3 H3 H3 H1 H2 H1 H2 H1 H2 H1 H2 H1 H2 H1 H2 H1 H2 H1 H2 H1 H2 H5 H6 H7 H8 H9 H10 H11 H12 H13 H14 H15 H16 ")
DCN_FatTree4G.H5.tcpApp[0].connectAddress=choose(int(intuniform(0,59)),"H6 H6 H6 H6 H6 H6 H6 H6 H6 H6 H6 H6 H6 H6 H6 H6 H6 H6 H6 H6 H6 H6 H6 H6 H6 H6 H6 H6 H6 H6 H7 H8 H7 H8 H7 H8 H7 H8 H7 H8 H7 H8 H7 H8 H7 H8 H7 H8 H1 H2 H3 H4 H9 H10 H11 H12 H13 H14 H15 H16 ")
DCN_FatTree4G.H6.tcpApp[0].connectAddress=choose(int(intuniform(0,59)),"H5 H5 H5 H5 H5 H5 H5 H5 H5 H5 H5 H5 H5 H5 H5 H5 H5 H5 H5 H5 H5 H5 H5 H5 H5 H5 H5 H5 H5 H5 H7 H8 H7 H8 H7 H8 H7 H8 H7 H8 H7 H8 H7 H8 H7 H8 H7 H8 H1 H2 H3 H4 H9 H10 H11 H12 H13 H14 H15 H16 ")
DCN_FatTree4G.H7.tcpApp[0].connectAddress=choose(int(intuniform(0,59)),"H8 H8 H8 H8 H8 H8 H8 H8 H8 H8 H8 H8 H8 H8 H8 H8 H8 H8 H8 H8 H8 H8 H8 H8 H8 H8 H8 H8 H8 H8 H5 H6 H5 H6 H5 H6 H5 H6 H5 H6 H5 H6 H5 H6 H5 H6 H5 H6 H1 H2 H3 H4 H9 H10 H11 H12 H13 H14 H15 H16 ")
DCN_FatTree4G.H8.tcpApp[0].connectAddress=choose(int(intuniform(0,59)),"H7 H7 H7 H7 H7 H7 H7 H7 H7 H7 H7 H7 H7 H7 H7 H7 H7 H7 H7 H7 H7 H7 H7 H7 H7 H7 H7 H7 H7 H7 H5 H6 H5 H6 H5 H6 H5 H6 H5 H6 H5 H6 H5 H6 H5 H6 H5 H6 H1 H2 H3 H4 H9 H10 H11 H12 H13 H14 H15 H16 ")
DCN_FatTree4G.H5.tcpApp[1].connectAddress=choose(int(intuniform(0,59)),"H6 H6 H6 H6 H6 H6 H6 H6 H6 H6 H6 H6 H6 H6 H6 H6 H6 H6 H6 H6 H6 H6 H6 H6 H6 H6 H6 H6 H6 H6 H7 H8 H7 H8 H7 H8 H7 H8 H7 H8 H7 H8 H7 H8 H7 H8 H7 H8 H1 H2 H3 H4 H9 H10 H11 H12 H13 H14 H15 H16 ")
DCN_FatTree4G.H6.tcpApp[1].connectAddress=choose(int(intuniform(0,59)),"H5 H5 H5 H5 H5 H5 H5 H5 H5 H5 H5 H5 H5 H5 H5 H5 H5 H5 H5 H5 H5 H5 H5 H5 H5 H5 H5 H5 H5 H5 H7 H8 H7 H8 H7 H8 H7 H8 H7 H8 H7 H8 H7 H8 H7 H8 H7 H8 H1 H2 H3 H4 H9 H10 H11 H12 H13 H14 H15 H16 ")
DCN_FatTree4G.H7.tcpApp[1].connectAddress=choose(int(intuniform(0,59)),"H8 H8 H8 H8 H8 H8 H8 H8 H8 H8 H8 H8 H8 H8 H8 H8 H8 H8 H8 H8 H8 H8 H8 H8 H8 H8 H8 H8 H8 H8 H5 H6 H5 H6 H5 H6 H5 H6 H5 H6 H5 H6 H5 H6 H5 H6 H5 H6 H1 H2 H3 H4 H9 H10 H11 H12 H13 H14 H15 H16 ")
DCN_FatTree4G.H8.tcpApp[1].connectAddress=choose(int(intuniform(0,59)),"H7 H7 H7 H7 H7 H7 H7 H7 H7 H7 H7 H7 H7 H7 H7 H7 H7 H7 H7 H7 H7 H7 H7 H7 H7 H7 H7 H7 H7 H7 H5 H6 H5 H6 H5 H6 H5 H6 H5 H6 H5 H6 H5 H6 H5 H6 H5 H6 H1 H2 H3 H4 H9 H10 H11 H12 H13 H14 H15 H16 ")
DCN_FatTree4G.H5.tcpApp[2].connectAddress=choose(int(intuniform(0,59)),"H6 H6 H6 H6 H6 H6 H6 H6 H6 H6 H6 H6 H6 H6 H6 H6 H6 H6 H6 H6 H6 H6 H6 H6 H6 H6 H6 H6 H6 H6 H7 H8 H7 H8 H7 H8 H7 H8 H7 H8 H7 H8 H7 H8 H7 H8 H7 H8 H1 H2 H3 H4 H9 H10 H11 H12 H13 H14 H15 H16 ")
DCN_FatTree4G.H6.tcpApp[2].connectAddress=choose(int(intuniform(0,59)),"H5 H5 H5 H5 H5 H5 H5 H5 H5 H5 H5 H5 H5 H5 H5 H5 H5 H5 H5 H5 H5 H5 H5 H5 H5 H5 H5 H5 H5 H5 H7 H8 H7 H8 H7 H8 H7 H8 H7 H8 H7 H8 H7 H8 H7 H8 H7 H8 H1 H2 H3 H4 H9 H10 H11 H12 H13 H14 H15 H16 ")
DCN_FatTree4G.H7.tcpApp[2].connectAddress=choose(int(intuniform(0,59)),"H8 H8 H8 H8 H8 H8 H8 H8 H8 H8 H8 H8 H8 H8 H8 H8 H8 H8 H8 H8 H8 H8 H8 H8 H8 H8 H8 H8 H8 H8 H5 H6 H5 H6 H5 H6 H5 H6 H5 H6 H5 H6 H5 H6 H5 H6 H5 H6 H1 H2 H3 H4 H9 H10 H11 H12 H13 H14 H15 H16 ")
DCN_FatTree4G.H8.tcpApp[2].connectAddress=choose(int(intuniform(0,59)),"H7 H7 H7 H7 H7 H7 H7 H7 H7 H7 H7 H7 H7 H7 H7 H7 H7 H7 H7 H7 H7 H7 H7 H7 H7 H7 H7 H7 H7 H7 H5 H6 H5 H6 H5 H6 H5 H6 H5 H6 H5 H6 H5 H6 H5 H6 H5 H6 H1 H2 H3 H4 H9 H10 H11 H12 H13 H14 H15 H16 ")
DCN_FatTree4G.H5.tcpApp[3].connectAddress=choose(int(intuniform(0,59)),"H6 H6 H6 H6 H6 H6 H6 H6 H6 H6 H6 H6 H6 H6 H6 H6 H6 H6 H6 H6 H6 H6 H6 H6 H6 H6 H6 H6 H6 H6 H7 H8 H7 H8 H7 H8 H7 H8 H7 H8 H7 H8 H7 H8 H7 H8 H7 H8 H1 H2 H3 H4 H9 H10 H11 H12 H13 H14 H15 H16 ")
DCN_FatTree4G.H6.tcpApp[3].connectAddress=choose(int(intuniform(0,59)),"H5 H5 H5 H5 H5 H5 H5 H5 H5 H5 H5 H5 H5 H5 H5 H5 H5 H5 H5 H5 H5 H5 H5 H5 H5 H5 H5 H5 H5 H5 H7 H8 H7 H8 H7 H8 H7 H8 H7 H8 H7 H8 H7 H8 H7 H8 H7 H8 H1 H2 H3 H4 H9 H10 H11 H12 H13 H14 H15 H16 ")
DCN_FatTree4G.H7.tcpApp[3].connectAddress=choose(int(intuniform(0,59)),"H8 H8 H8 H8 H8 H8 H8 H8 H8 H8 H8 H8 H8 H8 H8 H8 H8 H8 H8 H8 H8 H8 H8 H8 H8 H8 H8 H8 H8 H8 H5 H6 H5 H6 H5 H6 H5 H6 H5 H6 H5 H6 H5 H6 H5 H6 H5 H6 H1 H2 H3 H4 H9 H10 H11 H12 H13 H14 H15 H16 ")
DCN_FatTree4G.H8.tcpApp[3].connectAddress=choose(int(intuniform(0,59)),"H7 H7 H7 H7 H7 H7 H7 H7 H7 H7 H7 H7 H7 H7 H7 H7 H7 H7 H7 H7 H7 H7 H7 H7 H7 H7 H7 H7 H7 H7 H5 H6 H5 H6 H5 H6 H5 H6 H5 H6 H5 H6 H5 H6 H5 H6 H5 H6 H1 H2 H3 H4 H9 H10 H11 H12 H13 H14 H15 H16 ")
DCN_FatTree4G.H5.tcpApp[4].connectAddress=choose(int(intuniform(0,59)),"H6 H6 H6 H6 H6 H6 H6 H6 H6 H6 H6 H6 H6 H6 H6 H6 H6 H6 H6 H6 H6 H6 H6 H6 H6 H6 H6 H6 H6 H6 H7 H8 H7 H8 H7 H8 H7 H8 H7 H8 H7 H8 H7 H8 H7 H8 H7 H8 H1 H2 H3 H4 H9 H10 H11 H12 H13 H14 H15 H16 ")
DCN_FatTree4G.H6.tcpApp[4].connectAddress=choose(int(intuniform(0,59)),"H5 H5 H5 H5 H5 H5 H5 H5 H5 H5 H5 H5 H5 H5 H5 H5 H5 H5 H5 H5 H5 H5 H5 H5 H5 H5 H5 H5 H5 H5 H7 H8 H7 H8 H7 H8 H7 H8 H7 H8 H7 H8 H7 H8 H7 H8 H7 H8 H1 H2 H3 H4 H9 H10 H11 H12 H13 H14 H15 H16 ")
DCN_FatTree4G.H7.tcpApp[4].connectAddress=choose(int(intuniform(0,59)),"H8 H8 H8 H8 H8 H8 H8 H8 H8 H8 H8 H8 H8 H8 H8 H8 H8 H8 H8 H8 H8 H8 H8 H8 H8 H8 H8 H8 H8 H8 H5 H6 H5 H6 H5 H6 H5 H6 H5 H6 H5 H6 H5 H6 H5 H6 H5 H6 H1 H2 H3 H4 H9 H10 H11 H12 H13 H14 H15 H16 ")
DCN_FatTree4G.H8.tcpApp[4].connectAddress=choose(int(intuniform(0,59)),"H7 H7 H7 H7 H7 H7 H7 H7 H7 H7 H7 H7 H7 H7 H7 H7 H7 H7 H7 H7 H7 H7 H7 H7 H7 H7 H7 H7 H7 H7 H5 H6 H5 H6 H5 H6 H5 H6 H5 H6 H5 H6 H5 H6 H5 H6 H5 H6 H1 H2 H3 H4 H9 H10 H11 H12 H13 H14 H15 H16 ")
DCN_FatTree4G.H5.tcpApp[5].connectAddress=choose(int(intuniform(0,59)),"H6 H6 H6 H6 H6 H6 H6 H6 H6 H6 H6 H6 H6 H6 H6 H6 H6 H6 H6 H6 H6 H6 H6 H6 H6 H6 H6 H6 H6 H6 H7 H8 H7 H8 H7 H8 H7 H8 H7 H8 H7 H8 H7 H8 H7 H8 H7 H8 H1 H2 H3 H4 H9 H10 H11 H12 H13 H14 H15 H16 ")
DCN_FatTree4G.H6.tcpApp[5].connectAddress=choose(int(intuniform(0,59)),"H5 H5 H5 H5 H5 H5 H5 H5 H5 H5 H5 H5 H5 H5 H5 H5 H5 H5 H5 H5 H5 H5 H5 H5 H5 H5 H5 H5 H5 H5 H7 H8 H7 H8 H7 H8 H7 H8 H7 H8 H7 H8 H7 H8 H7 H8 H7 H8 H1 H2 H3 H4 H9 H10 H11 H12 H13 H14 H15 H16 ")
DCN_FatTree4G.H7.tcpApp[5].connectAddress=choose(int(intuniform(0,59)),"H8 H8 H8 H8 H8 H8 H8 H8 H8 H8 H8 H8 H8 H8 H8 H8 H8 H8 H8 H8 H8 H8 H8 H8 H8 H8 H8 H8 H8 H8 H5 H6 H5 H6 H5 H6 H5 H6 H5 H6 H5 H6 H5 H6 H5 H6 H5 H6 H1 H2 H3 H4 H9 H10 H11 H12 H13 H14 H15 H16 ")
DCN_FatTree4G.H8.tcpApp[5].connectAddress=choose(int(intuniform(0,59)),"H7 H7 H7 H7 H7 H7 H7 H7 H7 H7 H7 H7 H7 H7 H7 H7 H7 H7 H7 H7 H7 H7 H7 H7 H7 H7 H7 H7 H7 H7 H5 H6 H5 H6 H5 H6 H5 H6 H5 H6 H5 H6 H5 H6 H5 H6 H5 H6 H1 H2 H3 H4 H9 H10 H11 H12 H13 H14 H15 H16 ")
DCN_FatTree4G.H5.tcpApp[6].connectAddress=choose(int(intuniform(0,59)),"H6 H6 H6 H6 H6 H6 H6 H6 H6 H6 H6 H6 H6 H6 H6 H6 H6 H6 H6 H6 H6 H6 H6 H6 H6 H6 H6 H6 H6 H6 H7 H8 H7 H8 H7 H8 H7 H8 H7 H8 H7 H8 H7 H8 H7 H8 H7 H8 H1 H2 H3 H4 H9 H10 H11 H12 H13 H14 H15 H16 ")
DCN_FatTree4G.H6.tcpApp[6].connectAddress=choose(int(intuniform(0,59)),"H5 H5 H5 H5 H5 H5 H5 H5 H5 H5 H5 H5 H5 H5 H5 H5 H5 H5 H5 H5 H5 H5 H5 H5 H5 H5 H5 H5 H5 H5 H7 H8 H7 H8 H7 H8 H7 H8 H7 H8 H7 H8 H7 H8 H7 H8 H7 H8 H1 H2 H3 H4 H9 H10 H11 H12 H13 H14 H15 H16 ")
DCN_FatTree4G.H7.tcpApp[6].connectAddress=choose(int(intuniform(0,59)),"H8 H8 H8 H8 H8 H8 H8 H8 H8 H8 H8 H8 H8 H8 H8 H8 H8 H8 H8 H8 H8 H8 H8 H8 H8 H8 H8 H8 H8 H8 H5 H6 H5 H6 H5 H6 H5 H6 H5 H6 H5 H6 H5 H6 H5 H6 H5 H6 H1 H2 H3 H4 H9 H10 H11 H12 H13 H14 H15 H16 ")
DCN_FatTree4G.H8.tcpApp[6].connectAddress=choose(int(intuniform(0,59)),"H7 H7 H7 H7 H7 H7 H7 H7 H7 H7 H7 H7 H7 H7 H7 H7 H7 H7 H7 H7 H7 H7 H7 H7 H7 H7 H7 H7 H7 H7 H5 H6 H5 H6 H5 H6 H5 H6 H5 H6 H5 H6 H5 H6 H5 H6 H5 H6 H1 H2 H3 H4 H9 H10 H11 H12 H13 H14 H15 H16 ")
DCN_FatTree4G.H5.tcpApp[7].connectAddress=choose(int(intuniform(0,59)),"H6 H6 H6 H6 H6 H6 H6 H6 H6 H6 H6 H6 H6 H6 H6 H6 H6 H6 H6 H6 H6 H6 H6 H6 H6 H6 H6 H6 H6 H6 H7 H8 H7 H8 H7 H8 H7 H8 H7 H8 H7 H8 H7 H8 H7 H8 H7 H8 H1 H2 H3 H4 H9 H10 H11 H12 H13 H14 H15 H16 ")
DCN_FatTree4G.H6.tcpApp[7].connectAddress=choose(int(intuniform(0,59)),"H5 H5 H5 H5 H5 H5 H5 H5 H5 H5 H5 H5 H5 H5 H5 H5 H5 H5 H5 H5 H5 H5 H5 H5 H5 H5 H5 H5 H5 H5 H7 H8 H7 H8 H7 H8 H7 H8 H7 H8 H7 H8 H7 H8 H7 H8 H7 H8 H1 H2 H3 H4 H9 H10 H11 H12 H13 H14 H15 H16 ")
DCN_FatTree4G.H7.tcpApp[7].connectAddress=choose(int(intuniform(0,59)),"H8 H8 H8 H8 H8 H8 H8 H8 H8 H8 H8 H8 H8 H8 H8 H8 H8 H8 H8 H8 H8 H8 H8 H8 H8 H8 H8 H8 H8 H8 H5 H6 H5 H6 H5 H6 H5 H6 H5 H6 H5 H6 H5 H6 H5 H6 H5 H6 H1 H2 H3 H4 H9 H10 H11 H12 H13 H14 H15 H16 ")
DCN_FatTree4G.H8.tcpApp[7].connectAddress=choose(int(intuniform(0,59)),"H7 H7 H7 H7 H7 H7 H7 H7 H7 H7 H7 H7 H7 H7 H7 H7 H7 H7 H7 H7 H7 H7 H7 H7 H7 H7 H7 H7 H7 H7 H5 H6 H5 H6 H5 H6 H5 H6 H5 H6 H5 H6 H5 H6 H5 H6 H5 H6 H1 H2 H3 H4 H9 H10 H11 H12 H13 H14 H15 H16 ")
DCN_FatTree4G.H5.tcpApp[8].connectAddress=choose(int(intuniform(0,59)),"H6 H6 H6 H6 H6 H6 H6 H6 H6 H6 H6 H6 H6 H6 H6 H6 H6 H6 H6 H6 H6 H6 H6 H6 H6 H6 H6 H6 H6 H6 H7 H8 H7 H8 H7 H8 H7 H8 H7 H8 H7 H8 H7 H8 H7 H8 H7 H8 H1 H2 H3 H4 H9 H10 H11 H12 H13 H14 H15 H16 ")
DCN_FatTree4G.H6.tcpApp[8].connectAddress=choose(int(intuniform(0,59)),"H5 H5 H5 H5 H5 H5 H5 H5 H5 H5 H5 H5 H5 H5 H5 H5 H5 H5 H5 H5 H5 H5 H5 H5 H5 H5 H5 H5 H5 H5 H7 H8 H7 H8 H7 H8 H7 H8 H7 H8 H7 H8 H7 H8 H7 H8 H7 H8 H1 H2 H3 H4 H9 H10 H11 H12 H13 H14 H15 H16 ")
DCN_FatTree4G.H7.tcpApp[8].connectAddress=choose(int(intuniform(0,59)),"H8 H8 H8 H8 H8 H8 H8 H8 H8 H8 H8 H8 H8 H8 H8 H8 H8 H8 H8 H8 H8 H8 H8 H8 H8 H8 H8 H8 H8 H8 H5 H6 H5 H6 H5 H6 H5 H6 H5 H6 H5 H6 H5 H6 H5 H6 H5 H6 H1 H2 H3 H4 H9 H10 H11 H12 H13 H14 H15 H16 ")
DCN_FatTree4G.H8.tcpApp[8].connectAddress=choose(int(intuniform(0,59)),"H7 H7 H7 H7 H7 H7 H7 H7 H7 H7 H7 H7 H7 H7 H7 H7 H7 H7 H7 H7 H7 H7 H7 H7 H7 H7 H7 H7 H7 H7 H5 H6 H5 H6 H5 H6 H5 H6 H5 H6 H5 H6 H5 H6 H5 H6 H5 H6 H1 H2 H3 H4 H9 H10 H11 H12 H13 H14 H15 H16 ")
DCN_FatTree4G.H5.tcpApp[9].connectAddress=choose(int(intuniform(0,59)),"H6 H6 H6 H6 H6 H6 H6 H6 H6 H6 H6 H6 H6 H6 H6 H6 H6 H6 H6 H6 H6 H6 H6 H6 H6 H6 H6 H6 H6 H6 H7 H8 H7 H8 H7 H8 H7 H8 H7 H8 H7 H8 H7 H8 H7 H8 H7 H8 H1 H2 H3 H4 H9 H10 H11 H12 H13 H14 H15 H16 ")
DCN_FatTree4G.H6.tcpApp[9].connectAddress=choose(int(intuniform(0,59)),"H5 H5 H5 H5 H5 H5 H5 H5 H5 H5 H5 H5 H5 H5 H5 H5 H5 H5 H5 H5 H5 H5 H5 H5 H5 H5 H5 H5 H5 H5 H7 H8 H7 H8 H7 H8 H7 H8 H7 H8 H7 H8 H7 H8 H7 H8 H7 H8 H1 H2 H3 H4 H9 H10 H11 H12 H13 H14 H15 H16 ")
DCN_FatTree4G.H7.tcpApp[9].connectAddress=choose(int(intuniform(0,59)),"H8 H8 H8 H8 H8 H8 H8 H8 H8 H8 H8 H8 H8 H8 H8 H8 H8 H8 H8 H8 H8 H8 H8 H8 H8 H8 H8 H8 H8 H8 H5 H6 H5 H6 H5 H6 H5 H6 H5 H6 H5 H6 H5 H6 H5 H6 H5 H6 H1 H2 H3 H4 H9 H10 H11 H12 H13 H14 H15 H16 ")
DCN_FatTree4G.H8.tcpApp[9].connectAddress=choose(int(intuniform(0,59)),"H7 H7 H7 H7 H7 H7 H7 H7 H7 H7 H7 H7 H7 H7 H7 H7 H7 H7 H7 H7 H7 H7 H7 H7 H7 H7 H7 H7 H7 H7 H5 H6 H5 H6 H5 H6 H5 H6 H5 H6 H5 H6 H5 H6 H5 H6 H5 H6 H1 H2 H3 H4 H9 H10 H11 H12 H13 H14 H15 H16 ")
DCN_FatTree4G.H9.tcpApp[0].connectAddress=choose(int(intuniform(0,59)),"H10 H10 H10 H10 H10 H10 H10 H10 H10 H10 H10 H10 H10 H10 H10 H10 H10 H10 H10 H10 H10 H10 H10 H10 H10 H10 H10 H10 H10 H10 H11 H12 H11 H12 H11 H12 H11 H12 H11 H12 H11 H12 H11 H12 H11 H12 H11 H12 H1 H2 H3 H4 H5 H6 H7 H8 H13 H14 H15 H16 ")
DCN_FatTree4G.H10.tcpApp[0].connectAddress=choose(int(intuniform(0,59)),"H9 H9 H9 H9 H9 H9 H9 H9 H9 H9 H9 H9 H9 H9 H9 H9 H9 H9 H9 H9 H9 H9 H9 H9 H9 H9 H9 H9 H9 H9 H11 H12 H11 H12 H11 H12 H11 H12 H11 H12 H11 H12 H11 H12 H11 H12 H11 H12 H1 H2 H3 H4 H5 H6 H7 H8 H13 H14 H15 H16 ")
DCN_FatTree4G.H11.tcpApp[0].connectAddress=choose(int(intuniform(0,59)),"H12 H12 H12 H12 H12 H12 H12 H12 H12 H12 H12 H12 H12 H12 H12 H12 H12 H12 H12 H12 H12 H12 H12 H12 H12 H12 H12 H12 H12 H12 H9 H10 H9 H10 H9 H10 H9 H10 H9 H10 H9 H10 H9 H10 H9 H10 H9 H10 H1 H2 H3 H4 H5 H6 H7 H8 H13 H14 H15 H16 ")
DCN_FatTree4G.H12.tcpApp[0].connectAddress=choose(int(intuniform(0,59)),"H11 H11 H11 H11 H11 H11 H11 H11 H11 H11 H11 H11 H11 H11 H11 H11 H11 H11 H11 H11 H11 H11 H11 H11 H11 H11 H11 H11 H11 H11 H9 H10 H9 H10 H9 H10 H9 H10 H9 H10 H9 H10 H9 H10 H9 H10 H9 H10 H1 H2 H3 H4 H5 H6 H7 H8 H13 H14 H15 H16 ")
DCN_FatTree4G.H9.tcpApp[1].connectAddress=choose(int(intuniform(0,59)),"H10 H10 H10 H10 H10 H10 H10 H10 H10 H10 H10 H10 H10 H10 H10 H10 H10 H10 H10 H10 H10 H10 H10 H10 H10 H10 H10 H10 H10 H10 H11 H12 H11 H12 H11 H12 H11 H12 H11 H12 H11 H12 H11 H12 H11 H12 H11 H12 H1 H2 H3 H4 H5 H6 H7 H8 H13 H14 H15 H16 ")
DCN_FatTree4G.H10.tcpApp[1].connectAddress=choose(int(intuniform(0,59)),"H9 H9 H9 H9 H9 H9 H9 H9 H9 H9 H9 H9 H9 H9 H9 H9 H9 H9 H9 H9 H9 H9 H9 H9 H9 H9 H9 H9 H9 H9 H11 H12 H11 H12 H11 H12 H11 H12 H11 H12 H11 H12 H11 H12 H11 H12 H11 H12 H1 H2 H3 H4 H5 H6 H7 H8 H13 H14 H15 H16 ")
DCN_FatTree4G.H11.tcpApp[1].connectAddress=choose(int(intuniform(0,59)),"H12 H12 H12 H12 H12 H12 H12 H12 H12 H12 H12 H12 H12 H12 H12 H12 H12 H12 H12 H12 H12 H12 H12 H12 H12 H12 H12 H12 H12 H12 H9 H10 H9 H10 H9 H10 H9 H10 H9 H10 H9 H10 H9 H10 H9 H10 H9 H10 H1 H2 H3 H4 H5 H6 H7 H8 H13 H14 H15 H16 ")
DCN_FatTree4G.H12.tcpApp[1].connectAddress=choose(int(intuniform(0,59)),"H11 H11 H11 H11 H11 H11 H11 H11 H11 H11 H11 H11 H11 H11 H11 H11 H11 H11 H11 H11 H11 H11 H11 H11 H11 H11 H11 H11 H11 H11 H9 H10 H9 H10 H9 H10 H9 H10 H9 H10 H9 H10 H9 H10 H9 H10 H9 H10 H1 H2 H3 H4 H5 H6 H7 H8 H13 H14 H15 H16 ")
DCN_FatTree4G.H9.tcpApp[2].connectAddress=choose(int(intuniform(0,59)),"H10 H10 H10 H10 H10 H10 H10 H10 H10 H10 H10 H10 H10 H10 H10 H10 H10 H10 H10 H10 H10 H10 H10 H10 H10 H10 H10 H10 H10 H10 H11 H12 H11 H12 H11 H12 H11 H12 H11 H12 H11 H12 H11 H12 H11 H12 H11 H12 H1 H2 H3 H4 H5 H6 H7 H8 H13 H14 H15 H16 ")
DCN_FatTree4G.H10.tcpApp[2].connectAddress=choose(int(intuniform(0,59)),"H9 H9 H9 H9 H9 H9 H9 H9 H9 H9 H9 H9 H9 H9 H9 H9 H9 H9 H9 H9 H9 H9 H9 H9 H9 H9 H9 H9 H9 H9 H11 H12 H11 H12 H11 H12 H11 H12 H11 H12 H11 H12 H11 H12 H11 H12 H11 H12 H1 H2 H3 H4 H5 H6 H7 H8 H13 H14 H15 H16 ")
DCN_FatTree4G.H11.tcpApp[2].connectAddress=choose(int(intuniform(0,59)),"H12 H12 H12 H12 H12 H12 H12 H12 H12 H12 H12 H12 H12 H12 H12 H12 H12 H12 H12 H12 H12 H12 H12 H12 H12 H12 H12 H12 H12 H12 H9 H10 H9 H10 H9 H10 H9 H10 H9 H10 H9 H10 H9 H10 H9 H10 H9 H10 H1 H2 H3 H4 H5 H6 H7 H8 H13 H14 H15 H16 ")
DCN_FatTree4G.H12.tcpApp[2].connectAddress=choose(int(intuniform(0,59)),"H11 H11 H11 H11 H11 H11 H11 H11 H11 H11 H11 H11 H11 H11 H11 H11 H11 H11 H11 H11 H11 H11 H11 H11 H11 H11 H11 H11 H11 H11 H9 H10 H9 H10 H9 H10 H9 H10 H9 H10 H9 H10 H9 H10 H9 H10 H9 H10 H1 H2 H3 H4 H5 H6 H7 H8 H13 H14 H15 H16 ")
DCN_FatTree4G.H9.tcpApp[3].connectAddress=choose(int(intuniform(0,59)),"H10 H10 H10 H10 H10 H10 H10 H10 H10 H10 H10 H10 H10 H10 H10 H10 H10 H10 H10 H10 H10 H10 H10 H10 H10 H10 H10 H10 H10 H10 H11 H12 H11 H12 H11 H12 H11 H12 H11 H12 H11 H12 H11 H12 H11 H12 H11 H12 H1 H2 H3 H4 H5 H6 H7 H8 H13 H14 H15 H16 ")
DCN_FatTree4G.H10.tcpApp[3].connectAddress=choose(int(intuniform(0,59)),"H9 H9 H9 H9 H9 H9 H9 H9 H9 H9 H9 H9 H9 H9 H9 H9 H9 H9 H9 H9 H9 H9 H9 H9 H9 H9 H9 H9 H9 H9 H11 H12 H11 H12 H11 H12 H11 H12 H11 H12 H11 H12 H11 H12 H11 H12 H11 H12 H1 H2 H3 H4 H5 H6 H7 H8 H13 H14 H15 H16 ")
DCN_FatTree4G.H11.tcpApp[3].connectAddress=choose(int(intuniform(0,59)),"H12 H12 H12 H12 H12 H12 H12 H12 H12 H12 H12 H12 H12 H12 H12 H12 H12 H12 H12 H12 H12 H12 H12 H12 H12 H12 H12 H12 H12 H12 H9 H10 H9 H10 H9 H10 H9 H10 H9 H10 H9 H10 H9 H10 H9 H10 H9 H10 H1 H2 H3 H4 H5 H6 H7 H8 H13 H14 H15 H16 ")
DCN_FatTree4G.H12.tcpApp[3].connectAddress=choose(int(intuniform(0,59)),"H11 H11 H11 H11 H11 H11 H11 H11 H11 H11 H11 H11 H11 H11 H11 H11 H11 H11 H11 H11 H11 H11 H11 H11 H11 H11 H11 H11 H11 H11 H9 H10 H9 H10 H9 H10 H9 H10 H9 H10 H9 H10 H9 H10 H9 H10 H9 H10 H1 H2 H3 H4 H5 H6 H7 H8 H13 H14 H15 H16 ")
DCN_FatTree4G.H9.tcpApp[4].connectAddress=choose(int(intuniform(0,59)),"H10 H10 H10 H10 H10 H10 H10 H10 H10 H10 H10 H10 H10 H10 H10 H10 H10 H10 H10 H10 H10 H10 H10 H10 H10 H10 H10 H10 H10 H10 H11 H12 H11 H12 H11 H12 H11 H12 H11 H12 H11 H12 H11 H12 H11 H12 H11 H12 H1 H2 H3 H4 H5 H6 H7 H8 H13 H14 H15 H16 ")
DCN_FatTree4G.H10.tcpApp[4].connectAddress=choose(int(intuniform(0,59)),"H9 H9 H9 H9 H9 H9 H9 H9 H9 H9 H9 H9 H9 H9 H9 H9 H9 H9 H9 H9 H9 H9 H9 H9 H9 H9 H9 H9 H9 H9 H11 H12 H11 H12 H11 H12 H11 H12 H11 H12 H11 H12 H11 H12 H11 H12 H11 H12 H1 H2 H3 H4 H5 H6 H7 H8 H13 H14 H15 H16 ")
DCN_FatTree4G.H11.tcpApp[4].connectAddress=choose(int(intuniform(0,59)),"H12 H12 H12 H12 H12 H12 H12 H12 H12 H12 H12 H12 H12 H12 H12 H12 H12 H12 H12 H12 H12 H12 H12 H12 H12 H12 H12 H12 H12 H12 H9 H10 H9 H10 H9 H10 H9 H10 H9 H10 H9 H10 H9 H10 H9 H10 H9 H10 H1 H2 H3 H4 H5 H6 H7 H8 H13 H14 H15 H16 ")
DCN_FatTree4G.H12.tcpApp[4].connectAddress=choose(int(intuniform(0,59)),"H11 H11 H11 H11 H11 H11 H11 H11 H11 H11 H11 H11 H11 H11 H11 H11 H11 H11 H11 H11 H11 H11 H11 H11 H11 H11 H11 H11 H11 H11 H9 H10 H9 H10 H9 H10 H9 H10 H9 H10 H9 H10 H9 H10 H9 H10 H9 H10 H1 H2 H3 H4 H5 H6 H7 H8 H13 H14 H15 H16 ")
DCN_FatTree4G.H9.tcpApp[5].connectAddress=choose(int(intuniform(0,59)),"H10 H10 H10 H10 H10 H10 H10 H10 H10 H10 H10 H10 H10 H10 H10 H10 H10 H10 H10 H10 H10 H10 H10 H10 H10 H10 H10 H10 H10 H10 H11 H12 H11 H12 H11 H12 H11 H12 H11 H12 H11 H12 H11 H12 H11 H12 H11 H12 H1 H2 H3 H4 H5 H6 H7 H8 H13 H14 H15 H16 ")