[General]
network =TestTCPclient
#network = Scenario_Small

#-6.4MB-48W2WRandomSend
debug-statistics-recording = false
output-scalar-file = ${resultdir}/${inifile}/${configname}-${runnumber}.sca
debug-on-errors = false

#ARP should be allocated by controller, otherwise the arp broadcast would ruin the simulation.
output-vector-file = ${resultdir}/${inifile}/${configname}-${runnumber}.vec
sim-time-limit = 110s
simtime-scale = -12

#ARP should be allocated by controller, otherwise the arp broadcast would ruin the simulation.
**.controller.ctrlApp.isArpOracle = true
#**controller.behavior = "ForwardingEXR"
**.controller.ofa_controller.port=6633
#**.ovs*.open_Flow_Processing.active2sleepTime = 0.0002s
**.ovs*.open_Flow_Processing.active2sleepTime = 2s
**.ovs*.open_Flow_Processing.active2sleepTimePort=0.001s 
**.ovs*.open_Flow_Processing.portpower=1w
**.ovs*.open_Flow_Processing.switchpower=36w
**.ovs*.open_Flow_Processing.linkCapacity = 1000 #Mbps
**.ovs*.open_Flow_Processing.portNum = 4
#8-port switch: 2(in/out)*8*1G/(1500*8)=10^7/7.5 packets/s.
**.ovs*.serviceTime=0.00000075s #change from 0.0000015
**.ovs*.sendCompletePacket = true
**.ofa_switch.connectPort = 6633
**.ofa_switch.connectAddress = "controller"
**.buffer.capacity = 1000000 # change from 10
**.ofa_switch.flow_timeout = 200s
**.ovs*.etherMAC[*].promiscuous = true
#**.controller.ofa_controller.address = 

# NIC configuration
**.ppp[*].queueType = "DropTailQueue" # in routers
**.ppp[*].queue.frameCapacity = 1000  # in routers

#*.configurator.networkAddress = "10.0.0.0"
*.configurator.networkAddress = "192.168.1.0"

**.mss = 1400#536
**.advertisedWindow=21440 #default is 14*mss
**.recordStats=true

#tcp
**.H*.numTcpApps = 2
**.H*.tcpApp[0].typename = "TCPOFMultiSendy"
#**.H2.tcpApp[0].typename ="TCPSinkOFbased"
**.H*.tcpApp[0].active = true
**.H*.tcpApp[0].localPort=1001 #-1
**.H*.tcpApp[0].connectPort=1000
**.H*.tcpApp[0].tOpen=0s
#**.H*.tcpApp[0].tSend=1s/poisson(16)
**.H*.tcpApp[0].tSend=0.001s/poisson(16)
**.H*.tcpApp[0].sendBytes=10MiB #exponential(6400000B) # the file size.
#**.H*.tcpApp[0].sendBytes=6400000B
**.H*.tcpApp[0].tDeadline = 1s#800Mbps

**.H*.tcpApp[0].tClose=200s
**.H*.tcpApp[1].receiveBytes=10MiB #should equal to the send bytes.
**.H*.tcpApp[1].echoDelay=0s
**.H*.tcpApp[1].typename ="TCPSinkOFbased"
**.H*.tcpApp[1].localPort=1000

**.tcpApp[*]**.vector-recording = true
**.open_Flow_Processing**.vector-recording=true
**.vector-recording=true

**.ovs*.open_Flow_Processing.powerSampleTime=0.03s
**.H*.tcpApp[1].sampleTime=0.03s

**.H1.tcpApp[0].connectAddress = "TestTCPclient.H2"
**.H2.tcpApp[0].connectAddress = "TestTCPclient.H1"
**.tcpApp[*].dataTransferMode = "object"
[Config BEERs-aggr1]
description = "Forwarding with EX Routing"
#**.open_Flow_Processing.**.vector-recording = true
**controller.behavior = "BEERs"
**controller.ctrlApp.isWeightedNode=false
**controller.ctrlApp.max_multi_path_num = 2
**.H*.tcpApp[0].flowScheduleType=1
**controller.ctrlApp.linkcapacity=1000#Mbps
**.H*.tcpApp[0].tSend=exponential(1s)#48s/poisson(16)
**.H*.tcpApp[0].sendBytes = uniform(36MiB,128MiB)#exponential(36MiB)#intuniform(36MiB,128MiB)#exponential(36MiB)
**.H*.tcpApp[0].tDeadline = 2s#800Mbps
**.H*.tcpApp[0].flowNum = 20000
**.H*.tcpApp[0].sendByteSum= 300MB#30GB
**.H*.tcpApp[0].tClose=2000s
**.H*.tcpApp[0].sleepRatio=1

[Config SP-aggr1]
description = "Forwarding with SP Routing"
**controller.behavior = "Forwarding"
**.H*.tcpApp[0].flowScheduleType=2

[Config EXR-aggr1]
description = "Forwarding with EX Routing"
#**.open_Flow_Processing.**.vector-recording = true
**controller.behavior = "ForwardingEXR"
**controller.ctrlApp.isWeightedNode=false
**.H*.tcpApp[0].flowScheduleType=1